*SPEF "ieee 1481-1999"
*DESIGN "tt_um_openram_top"
*DATE "04:14:53 Tuesday August 26, 2025"
*VENDOR "The OpenROAD Project"
*PROGRAM "OpenROAD"
*VERSION "edf00dff99f6c40d67a30c0e22a8191c5d2ed9d6"
*DESIGN_FLOW "NAME_SCOPE LOCAL" "PIN_CAP NONE"
*DIVIDER /
*DELIMITER :
*BUS_DELIMITER []
*T_UNIT 1 NS
*C_UNIT 1 PF
*R_UNIT 1 OHM
*L_UNIT 1 HENRY

*NAME_MAP
*3 clk
*4 ena
*5 rst_n
*6 ui_in[0]
*7 ui_in[1]
*8 ui_in[2]
*9 ui_in[3]
*10 ui_in[4]
*11 ui_in[5]
*12 ui_in[6]
*13 ui_in[7]
*14 uio_in[0]
*15 uio_in[1]
*16 uio_in[2]
*17 uio_in[3]
*18 uio_in[4]
*19 uio_in[5]
*20 uio_in[6]
*21 uio_in[7]
*22 net57
*23 net58
*24 net59
*25 net60
*26 net61
*27 net62
*28 net63
*29 net64
*30 net65
*31 net66
*32 net67
*33 net68
*34 net69
*35 net70
*36 net71
*37 net72
*38 uo_out[0]
*39 uo_out[1]
*40 net73
*41 net74
*42 net75
*43 net76
*44 net77
*45 net78
*48 _000_
*49 _001_
*50 _002_
*51 _003_
*52 _004_
*53 _005_
*54 _006_
*55 _007_
*56 _008_
*57 _009_
*58 _010_
*59 _011_
*60 _012_
*61 _013_
*62 _014_
*63 _015_
*64 _016_
*65 _017_
*66 _018_
*67 _019_
*68 _020_
*69 _021_
*70 _022_
*71 _023_
*72 _024_
*73 _025_
*74 _026_
*75 _027_
*76 _028_
*77 _029_
*78 _030_
*79 _031_
*80 _032_
*81 _033_
*82 _034_
*83 _035_
*84 _036_
*85 _037_
*86 _038_
*87 _039_
*88 _040_
*89 _041_
*90 _042_
*91 _043_
*92 _044_
*93 _045_
*94 _046_
*95 _047_
*96 _048_
*97 _049_
*98 _050_
*99 _051_
*100 _052_
*101 _053_
*102 _054_
*103 _055_
*104 _056_
*105 _057_
*106 _058_
*107 _059_
*108 _060_
*109 _061_
*110 _062_
*111 _063_
*112 _064_
*113 _065_
*114 _066_
*115 _067_
*116 _068_
*117 _069_
*118 _070_
*119 _071_
*120 _072_
*121 _073_
*122 _074_
*123 _075_
*124 _076_
*125 _077_
*126 _078_
*127 _079_
*128 _080_
*129 _081_
*130 _082_
*131 _083_
*132 _084_
*133 _085_
*134 _086_
*135 _087_
*136 _088_
*137 _089_
*138 _090_
*139 _091_
*140 _092_
*141 _093_
*142 _094_
*143 _095_
*144 _096_
*145 _097_
*146 _098_
*147 _099_
*148 _100_
*149 _101_
*150 _102_
*151 _103_
*152 _104_
*153 _105_
*154 _106_
*155 _107_
*156 _108_
*157 _109_
*158 _110_
*159 _111_
*160 _112_
*161 _113_
*162 _114_
*163 _115_
*164 _116_
*165 _117_
*166 _118_
*167 _119_
*168 _120_
*169 _121_
*170 _122_
*171 _123_
*172 _124_
*173 _125_
*174 _126_
*175 _127_
*176 _128_
*177 _129_
*178 _130_
*179 _131_
*180 _132_
*181 _133_
*182 _134_
*183 _135_
*184 _136_
*185 _137_
*186 _138_
*187 _139_
*188 _140_
*189 _141_
*190 _142_
*191 _143_
*192 _144_
*193 _145_
*194 _146_
*195 _147_
*196 _148_
*197 _149_
*198 _150_
*199 _151_
*200 _152_
*201 _153_
*202 _154_
*203 _155_
*204 _156_
*205 _157_
*206 _158_
*207 _159_
*208 _160_
*209 _161_
*210 _162_
*211 _163_
*212 _164_
*213 _165_
*214 _166_
*215 _167_
*216 _168_
*217 _169_
*218 _170_
*219 _171_
*220 _172_
*221 _173_
*222 _174_
*223 _175_
*224 _176_
*225 _177_
*226 _178_
*227 _179_
*228 _180_
*229 _181_
*230 _182_
*231 _183_
*232 _184_
*233 _185_
*234 _186_
*235 _187_
*236 _188_
*237 _189_
*238 _190_
*239 _191_
*240 _192_
*241 _193_
*242 _194_
*243 _195_
*244 _196_
*245 _197_
*246 _198_
*247 _199_
*248 _200_
*249 _201_
*250 _202_
*251 _203_
*252 _204_
*253 _205_
*254 _206_
*255 _207_
*256 _208_
*257 _209_
*258 _210_
*259 _211_
*260 _212_
*261 _213_
*262 _214_
*263 _215_
*264 _216_
*265 _217_
*266 _218_
*267 _219_
*268 _220_
*269 _221_
*270 _222_
*271 _223_
*272 _224_
*273 _225_
*274 _226_
*275 _227_
*276 _228_
*277 _229_
*278 _230_
*279 _231_
*280 _232_
*281 _233_
*282 _234_
*283 _235_
*284 _236_
*285 _237_
*286 _238_
*287 _239_
*288 _240_
*289 _241_
*290 _242_
*291 _243_
*292 _244_
*293 _245_
*294 _246_
*295 _247_
*296 _248_
*297 _249_
*298 clknet_0_ui_in[3]
*299 clknet_0_ui_in[4]
*300 clknet_3_0__leaf_ui_in[3]
*301 clknet_3_0__leaf_ui_in[4]
*302 clknet_3_1__leaf_ui_in[3]
*303 clknet_3_1__leaf_ui_in[4]
*304 clknet_3_2__leaf_ui_in[3]
*305 clknet_3_2__leaf_ui_in[4]
*306 clknet_3_3__leaf_ui_in[3]
*307 clknet_3_3__leaf_ui_in[4]
*308 clknet_3_4__leaf_ui_in[3]
*309 clknet_3_4__leaf_ui_in[4]
*310 clknet_3_5__leaf_ui_in[3]
*311 clknet_3_5__leaf_ui_in[4]
*312 clknet_3_6__leaf_ui_in[3]
*313 clknet_3_6__leaf_ui_in[4]
*314 clknet_3_7__leaf_ui_in[3]
*315 clknet_3_7__leaf_ui_in[4]
*316 dout\[0\]
*317 dout\[10\]
*318 dout\[11\]
*319 dout\[12\]
*320 dout\[13\]
*321 dout\[14\]
*322 dout\[15\]
*323 dout\[16\]
*324 dout\[17\]
*325 dout\[18\]
*326 dout\[19\]
*327 dout\[1\]
*328 dout\[20\]
*329 dout\[21\]
*330 dout\[22\]
*331 dout\[23\]
*332 dout\[24\]
*333 dout\[25\]
*334 dout\[26\]
*335 dout\[27\]
*336 dout\[28\]
*337 dout\[29\]
*338 dout\[2\]
*339 dout\[30\]
*340 dout\[31\]
*341 dout\[32\]
*342 dout\[3\]
*343 dout\[4\]
*344 dout\[5\]
*345 dout\[6\]
*346 dout\[7\]
*347 dout\[8\]
*348 dout\[9\]
*349 net1
*350 net10
*351 net100
*352 net101
*353 net102
*354 net103
*355 net104
*356 net105
*357 net106
*358 net107
*359 net108
*360 net109
*361 net11
*362 net110
*363 net111
*364 net112
*365 net113
*366 net114
*367 net115
*368 net116
*369 net117
*370 net118
*371 net119
*372 net12
*373 net120
*374 net121
*375 net122
*376 net123
*377 net124
*378 net125
*379 net126
*380 net127
*381 net128
*382 net129
*383 net13
*384 net130
*385 net131
*386 net132
*387 net133
*388 net134
*389 net135
*390 net136
*391 net137
*392 net138
*393 net139
*394 net14
*395 net140
*396 net141
*397 net142
*398 net143
*399 net144
*400 net145
*401 net146
*402 net147
*403 net148
*404 net149
*405 net15
*406 net150
*407 net151
*408 net152
*409 net153
*410 net154
*411 net155
*412 net156
*413 net157
*414 net158
*415 net159
*416 net16
*417 net160
*418 net161
*419 net162
*420 net163
*421 net164
*422 net165
*423 net166
*424 net167
*425 net168
*426 net169
*427 net17
*428 net170
*429 net171
*430 net172
*431 net173
*432 net174
*433 net175
*434 net176
*435 net177
*436 net178
*437 net179
*438 net18
*439 net180
*440 net181
*441 net182
*442 net183
*443 net184
*444 net185
*445 net186
*446 net187
*447 net188
*448 net189
*449 net19
*450 net190
*451 net2
*452 net20
*453 net21
*454 net22
*455 net23
*456 net24
*457 net25
*458 net26
*459 net27
*460 net28
*461 net29
*462 net3
*463 net30
*464 net31
*465 net32
*466 net33
*467 net34
*468 net35
*469 net36
*470 net37
*471 net38
*472 net39
*473 net4
*474 net40
*475 net41
*476 net42
*477 net43
*478 net44
*479 net45
*480 net46
*481 net47
*482 net48
*483 net49
*484 net5
*485 net50
*486 net51
*487 net52
*488 net53
*489 net54
*490 net55
*491 net56
*492 net6
*493 net7
*494 net79
*495 net8
*496 net80
*497 net81
*498 net82
*499 net83
*500 net84
*501 net85
*502 net86
*503 net87
*504 net88
*505 net89
*506 net9
*507 net90
*508 net91
*509 net92
*510 net93
*511 net94
*512 net95
*513 net96
*514 net97
*515 net98
*516 net99
*517 scan_chain\.scan_cells\[0\]\.scan_cell\.data_out
*518 scan_chain\.scan_cells\[0\]\.scan_cell\.primary_ff
*519 scan_chain\.scan_cells\[10\]\.scan_cell\.data_out
*520 scan_chain\.scan_cells\[10\]\.scan_cell\.primary_ff
*521 scan_chain\.scan_cells\[10\]\.scan_cell\.scan_in
*522 scan_chain\.scan_cells\[11\]\.scan_cell\.data_out
*523 scan_chain\.scan_cells\[11\]\.scan_cell\.primary_ff
*524 scan_chain\.scan_cells\[12\]\.scan_cell\.data_out
*525 scan_chain\.scan_cells\[12\]\.scan_cell\.primary_ff
*526 scan_chain\.scan_cells\[13\]\.scan_cell\.data_out
*527 scan_chain\.scan_cells\[13\]\.scan_cell\.primary_ff
*528 scan_chain\.scan_cells\[14\]\.scan_cell\.data_out
*529 scan_chain\.scan_cells\[14\]\.scan_cell\.primary_ff
*530 scan_chain\.scan_cells\[15\]\.scan_cell\.data_out
*531 scan_chain\.scan_cells\[15\]\.scan_cell\.primary_ff
*532 scan_chain\.scan_cells\[16\]\.scan_cell\.data_out
*533 scan_chain\.scan_cells\[16\]\.scan_cell\.primary_ff
*534 scan_chain\.scan_cells\[17\]\.scan_cell\.data_out
*535 scan_chain\.scan_cells\[17\]\.scan_cell\.primary_ff
*536 scan_chain\.scan_cells\[18\]\.scan_cell\.data_out
*537 scan_chain\.scan_cells\[18\]\.scan_cell\.primary_ff
*538 scan_chain\.scan_cells\[19\]\.scan_cell\.data_out
*539 scan_chain\.scan_cells\[19\]\.scan_cell\.primary_ff
*540 scan_chain\.scan_cells\[1\]\.scan_cell\.data_out
*541 scan_chain\.scan_cells\[1\]\.scan_cell\.primary_ff
*542 scan_chain\.scan_cells\[20\]\.scan_cell\.data_out
*543 scan_chain\.scan_cells\[20\]\.scan_cell\.primary_ff
*544 scan_chain\.scan_cells\[21\]\.scan_cell\.data_out
*545 scan_chain\.scan_cells\[21\]\.scan_cell\.primary_ff
*546 scan_chain\.scan_cells\[22\]\.scan_cell\.data_out
*547 scan_chain\.scan_cells\[22\]\.scan_cell\.primary_ff
*548 scan_chain\.scan_cells\[23\]\.scan_cell\.data_out
*549 scan_chain\.scan_cells\[23\]\.scan_cell\.primary_ff
*550 scan_chain\.scan_cells\[24\]\.scan_cell\.data_out
*551 scan_chain\.scan_cells\[24\]\.scan_cell\.primary_ff
*552 scan_chain\.scan_cells\[25\]\.scan_cell\.data_out
*553 scan_chain\.scan_cells\[25\]\.scan_cell\.primary_ff
*554 scan_chain\.scan_cells\[26\]\.scan_cell\.data_out
*555 scan_chain\.scan_cells\[26\]\.scan_cell\.primary_ff
*556 scan_chain\.scan_cells\[27\]\.scan_cell\.data_out
*557 scan_chain\.scan_cells\[27\]\.scan_cell\.primary_ff
*558 scan_chain\.scan_cells\[28\]\.scan_cell\.data_out
*559 scan_chain\.scan_cells\[28\]\.scan_cell\.primary_ff
*560 scan_chain\.scan_cells\[29\]\.scan_cell\.data_out
*561 scan_chain\.scan_cells\[29\]\.scan_cell\.primary_ff
*562 scan_chain\.scan_cells\[2\]\.scan_cell\.data_out
*563 scan_chain\.scan_cells\[2\]\.scan_cell\.primary_ff
*564 scan_chain\.scan_cells\[30\]\.scan_cell\.data_out
*565 scan_chain\.scan_cells\[30\]\.scan_cell\.primary_ff
*566 scan_chain\.scan_cells\[31\]\.scan_cell\.data_out
*567 scan_chain\.scan_cells\[31\]\.scan_cell\.primary_ff
*568 scan_chain\.scan_cells\[32\]\.scan_cell\.data_out
*569 scan_chain\.scan_cells\[32\]\.scan_cell\.primary_ff
*570 scan_chain\.scan_cells\[33\]\.scan_cell\.data_in
*571 scan_chain\.scan_cells\[33\]\.scan_cell\.primary_ff
*572 scan_chain\.scan_cells\[34\]\.scan_cell\.data_in
*573 scan_chain\.scan_cells\[34\]\.scan_cell\.primary_ff
*574 scan_chain\.scan_cells\[35\]\.scan_cell\.data_in
*575 scan_chain\.scan_cells\[35\]\.scan_cell\.primary_ff
*576 scan_chain\.scan_cells\[36\]\.scan_cell\.data_in
*577 scan_chain\.scan_cells\[36\]\.scan_cell\.primary_ff
*578 scan_chain\.scan_cells\[37\]\.scan_cell\.data_in
*579 scan_chain\.scan_cells\[37\]\.scan_cell\.primary_ff
*580 scan_chain\.scan_cells\[38\]\.scan_cell\.data_in
*581 scan_chain\.scan_cells\[38\]\.scan_cell\.primary_ff
*582 scan_chain\.scan_cells\[39\]\.scan_cell\.data_in
*583 scan_chain\.scan_cells\[39\]\.scan_cell\.primary_ff
*584 scan_chain\.scan_cells\[3\]\.scan_cell\.data_out
*585 scan_chain\.scan_cells\[3\]\.scan_cell\.primary_ff
*586 scan_chain\.scan_cells\[40\]\.scan_cell\.data_in
*587 scan_chain\.scan_cells\[40\]\.scan_cell\.primary_ff
*588 scan_chain\.scan_cells\[41\]\.scan_cell\.data_in
*589 scan_chain\.scan_cells\[41\]\.scan_cell\.primary_ff
*590 scan_chain\.scan_cells\[42\]\.scan_cell\.data_in
*591 scan_chain\.scan_cells\[42\]\.scan_cell\.primary_ff
*592 scan_chain\.scan_cells\[43\]\.scan_cell\.data_in
*593 scan_chain\.scan_cells\[43\]\.scan_cell\.primary_ff
*594 scan_chain\.scan_cells\[44\]\.scan_cell\.data_in
*595 scan_chain\.scan_cells\[44\]\.scan_cell\.primary_ff
*596 scan_chain\.scan_cells\[45\]\.scan_cell\.data_in
*597 scan_chain\.scan_cells\[45\]\.scan_cell\.primary_ff
*598 scan_chain\.scan_cells\[46\]\.scan_cell\.data_in
*599 scan_chain\.scan_cells\[46\]\.scan_cell\.primary_ff
*600 scan_chain\.scan_cells\[47\]\.scan_cell\.data_in
*601 scan_chain\.scan_cells\[47\]\.scan_cell\.primary_ff
*602 scan_chain\.scan_cells\[48\]\.scan_cell\.data_in
*603 scan_chain\.scan_cells\[48\]\.scan_cell\.primary_ff
*604 scan_chain\.scan_cells\[49\]\.scan_cell\.data_in
*605 scan_chain\.scan_cells\[49\]\.scan_cell\.primary_ff
*606 scan_chain\.scan_cells\[4\]\.scan_cell\.data_out
*607 scan_chain\.scan_cells\[4\]\.scan_cell\.primary_ff
*608 scan_chain\.scan_cells\[50\]\.scan_cell\.data_in
*609 scan_chain\.scan_cells\[50\]\.scan_cell\.primary_ff
*610 scan_chain\.scan_cells\[51\]\.scan_cell\.data_in
*611 scan_chain\.scan_cells\[51\]\.scan_cell\.primary_ff
*612 scan_chain\.scan_cells\[52\]\.scan_cell\.data_in
*613 scan_chain\.scan_cells\[52\]\.scan_cell\.primary_ff
*614 scan_chain\.scan_cells\[53\]\.scan_cell\.data_in
*615 scan_chain\.scan_cells\[53\]\.scan_cell\.primary_ff
*616 scan_chain\.scan_cells\[54\]\.scan_cell\.data_in
*617 scan_chain\.scan_cells\[54\]\.scan_cell\.primary_ff
*618 scan_chain\.scan_cells\[55\]\.scan_cell\.data_in
*619 scan_chain\.scan_cells\[55\]\.scan_cell\.primary_ff
*620 scan_chain\.scan_cells\[56\]\.scan_cell\.data_in
*621 scan_chain\.scan_cells\[56\]\.scan_cell\.primary_ff
*622 scan_chain\.scan_cells\[57\]\.scan_cell\.data_in
*623 scan_chain\.scan_cells\[57\]\.scan_cell\.primary_ff
*624 scan_chain\.scan_cells\[58\]\.scan_cell\.data_in
*625 scan_chain\.scan_cells\[58\]\.scan_cell\.primary_ff
*626 scan_chain\.scan_cells\[59\]\.scan_cell\.data_in
*627 scan_chain\.scan_cells\[59\]\.scan_cell\.primary_ff
*628 scan_chain\.scan_cells\[5\]\.scan_cell\.data_out
*629 scan_chain\.scan_cells\[5\]\.scan_cell\.primary_ff
*630 scan_chain\.scan_cells\[60\]\.scan_cell\.data_in
*631 scan_chain\.scan_cells\[60\]\.scan_cell\.primary_ff
*632 scan_chain\.scan_cells\[61\]\.scan_cell\.data_in
*633 scan_chain\.scan_cells\[61\]\.scan_cell\.primary_ff
*634 scan_chain\.scan_cells\[62\]\.scan_cell\.data_in
*635 scan_chain\.scan_cells\[62\]\.scan_cell\.primary_ff
*636 scan_chain\.scan_cells\[63\]\.scan_cell\.data_in
*637 scan_chain\.scan_cells\[63\]\.scan_cell\.primary_ff
*638 scan_chain\.scan_cells\[64\]\.scan_cell\.data_in
*639 scan_chain\.scan_cells\[64\]\.scan_cell\.primary_ff
*640 scan_chain\.scan_cells\[65\]\.scan_cell\.data_in
*641 scan_chain\.scan_cells\[65\]\.scan_cell\.primary_ff
*642 scan_chain\.scan_cells\[66\]\.scan_cell\.data_in
*643 scan_chain\.scan_cells\[66\]\.scan_cell\.primary_ff
*644 scan_chain\.scan_cells\[67\]\.scan_cell\.data_in
*645 scan_chain\.scan_cells\[67\]\.scan_cell\.primary_ff
*646 scan_chain\.scan_cells\[68\]\.scan_cell\.data_in
*647 scan_chain\.scan_cells\[68\]\.scan_cell\.primary_ff
*648 scan_chain\.scan_cells\[69\]\.scan_cell\.data_in
*649 scan_chain\.scan_cells\[69\]\.scan_cell\.primary_ff
*650 scan_chain\.scan_cells\[6\]\.scan_cell\.data_out
*651 scan_chain\.scan_cells\[6\]\.scan_cell\.primary_ff
*652 scan_chain\.scan_cells\[70\]\.scan_cell\.data_in
*653 scan_chain\.scan_cells\[70\]\.scan_cell\.primary_ff
*654 scan_chain\.scan_cells\[71\]\.scan_cell\.data_in
*655 scan_chain\.scan_cells\[71\]\.scan_cell\.primary_ff
*656 scan_chain\.scan_cells\[7\]\.scan_cell\.data_out
*657 scan_chain\.scan_cells\[7\]\.scan_cell\.primary_ff
*658 scan_chain\.scan_cells\[8\]\.scan_cell\.data_out
*659 scan_chain\.scan_cells\[8\]\.scan_cell\.primary_ff
*660 scan_chain\.scan_cells\[9\]\.scan_cell\.primary_ff
*661 ANTENNA_1
*662 ANTENNA_10
*663 ANTENNA_11
*664 ANTENNA_12
*665 ANTENNA_13
*666 ANTENNA_14
*667 ANTENNA_15
*668 ANTENNA_16
*669 ANTENNA_17
*670 ANTENNA_18
*671 ANTENNA_19
*672 ANTENNA_2
*673 ANTENNA_20
*674 ANTENNA_21
*675 ANTENNA_22
*676 ANTENNA_23
*677 ANTENNA_24
*678 ANTENNA_25
*679 ANTENNA_26
*680 ANTENNA_27
*681 ANTENNA_28
*682 ANTENNA_29
*683 ANTENNA_3
*684 ANTENNA_30
*685 ANTENNA_31
*686 ANTENNA_32
*687 ANTENNA_33
*688 ANTENNA_4
*689 ANTENNA_5
*690 ANTENNA_6
*691 ANTENNA_7
*692 ANTENNA_8
*693 ANTENNA_9
*694 FILLER_0_688
*695 FILLER_0_700
*696 FILLER_0_704
*697 FILLER_10_706
*698 FILLER_10_712
*699 FILLER_11_694
*700 FILLER_11_708
*701 FILLER_11_712
*702 FILLER_12_688
*703 FILLER_12_694
*704 FILLER_12_704
*705 FILLER_13_688
*706 FILLER_13_710
*707 FILLER_14_688
*708 FILLER_15_688
*709 FILLER_15_705
*710 FILLER_16_688
*711 FILLER_17_688
*712 FILLER_17_710
*713 FILLER_18_688
*714 FILLER_18_705
*715 FILLER_19_688
*716 FILLER_19_700
*717 FILLER_19_704
*718 FILLER_1_688
*719 FILLER_1_707
*720 FILLER_20_688
*721 FILLER_20_694
*722 FILLER_21_688
*723 FILLER_21_710
*724 FILLER_22_688
*725 FILLER_23_688
*726 FILLER_23_700
*727 FILLER_23_712
*728 FILLER_24_688
*729 FILLER_24_700
*730 FILLER_24_712
*731 FILLER_25_688
*732 FILLER_25_700
*733 FILLER_25_712
*734 FILLER_26_688
*735 FILLER_26_698
*736 FILLER_26_710
*737 FILLER_27_688
*738 FILLER_27_705
*739 FILLER_28_688
*740 FILLER_28_710
*741 FILLER_29_688
*742 FILLER_2_688
*743 FILLER_30_688
*744 FILLER_30_694
*745 FILLER_30_697
*746 FILLER_30_709
*747 FILLER_31_688
*748 FILLER_31_694
*749 FILLER_32_688
*750 FILLER_32_710
*751 FILLER_33_688
*752 FILLER_34_688
*753 FILLER_35_688
*754 FILLER_35_710
*755 FILLER_36_688
*756 FILLER_36_705
*757 FILLER_37_688
*758 FILLER_37_705
*759 FILLER_38_688
*760 FILLER_38_696
*761 FILLER_39_688
*762 FILLER_39_710
*763 FILLER_3_707
*764 FILLER_40_697
*765 FILLER_40_709
*766 FILLER_41_688
*767 FILLER_41_692
*768 FILLER_41_704
*769 FILLER_41_712
*770 FILLER_42_688
*771 FILLER_42_710
*772 FILLER_43_708
*773 FILLER_43_712
*774 FILLER_44_708
*775 FILLER_44_712
*776 FILLER_45_693
*777 FILLER_46_688
*778 FILLER_46_700
*779 FILLER_46_712
*780 FILLER_47_688
*781 FILLER_48_688
*782 FILLER_48_710
*783 FILLER_49_688
*784 FILLER_49_705
*785 FILLER_4_710
*786 FILLER_50_688
*787 FILLER_50_696
*788 FILLER_50_708
*789 FILLER_50_712
*790 FILLER_51_688
*791 FILLER_51_703
*792 FILLER_52_688
*793 FILLER_52_710
*794 FILLER_53_688
*795 FILLER_53_694
*796 FILLER_54_688
*797 FILLER_54_710
*798 FILLER_55_708
*799 FILLER_55_712
*800 FILLER_56_708
*801 FILLER_56_712
*802 FILLER_57_688
*803 FILLER_58_688
*804 FILLER_58_692
*805 FILLER_58_702
*806 FILLER_58_710
*807 FILLER_59_688
*808 FILLER_59_710
*809 FILLER_5_706
*810 FILLER_5_712
*811 FILLER_60_688
*812 FILLER_60_694
*813 FILLER_60_704
*814 FILLER_61_688
*815 FILLER_61_700
*816 FILLER_61_710
*817 FILLER_62_706
*818 FILLER_62_712
*819 FILLER_63_708
*820 FILLER_63_712
*821 FILLER_64_688
*822 FILLER_64_710
*823 FILLER_65_708
*824 FILLER_65_712
*825 FILLER_66_706
*826 FILLER_66_712
*827 FILLER_67_101
*828 FILLER_67_109
*829 FILLER_67_122
*830 FILLER_67_126
*831 FILLER_67_136
*832 FILLER_67_15
*833 FILLER_67_161
*834 FILLER_67_167
*835 FILLER_67_169
*836 FILLER_67_175
*837 FILLER_67_206
*838 FILLER_67_218
*839 FILLER_67_225
*840 FILLER_67_235
*841 FILLER_67_247
*842 FILLER_67_251
*843 FILLER_67_253
*844 FILLER_67_265
*845 FILLER_67_27
*846 FILLER_67_29
*847 FILLER_67_290
*848 FILLER_67_296
*849 FILLER_67_3
*850 FILLER_67_306
*851 FILLER_67_309
*852 FILLER_67_321
*853 FILLER_67_333
*854 FILLER_67_345
*855 FILLER_67_365
*856 FILLER_67_371
*857 FILLER_67_41
*858 FILLER_67_413
*859 FILLER_67_419
*860 FILLER_67_421
*861 FILLER_67_427
*862 FILLER_67_449
*863 FILLER_67_461
*864 FILLER_67_473
*865 FILLER_67_495
*866 FILLER_67_503
*867 FILLER_67_523
*868 FILLER_67_53
*869 FILLER_67_531
*870 FILLER_67_533
*871 FILLER_67_546
*872 FILLER_67_556
*873 FILLER_67_57
*874 FILLER_67_570
*875 FILLER_67_583
*876 FILLER_67_587
*877 FILLER_67_589
*878 FILLER_67_597
*879 FILLER_67_605
*880 FILLER_67_617
*881 FILLER_67_643
*882 FILLER_67_645
*883 FILLER_67_657
*884 FILLER_67_669
*885 FILLER_67_69
*886 FILLER_67_693
*887 FILLER_67_699
*888 FILLER_67_701
*889 FILLER_67_81
*890 FILLER_67_85
*891 FILLER_67_91
*892 FILLER_68_108
*893 FILLER_68_133
*894 FILLER_68_139
*895 FILLER_68_141
*896 FILLER_68_15
*897 FILLER_68_206
*898 FILLER_68_238
*899 FILLER_68_250
*900 FILLER_68_27
*901 FILLER_68_29
*902 FILLER_68_3
*903 FILLER_68_302
*904 FILLER_68_317
*905 FILLER_68_339
*906 FILLER_68_362
*907 FILLER_68_380
*908 FILLER_68_401
*909 FILLER_68_41
*910 FILLER_68_439
*911 FILLER_68_450
*912 FILLER_68_469
*913 FILLER_68_475
*914 FILLER_68_498
*915 FILLER_68_53
*916 FILLER_68_533
*917 FILLER_68_537
*918 FILLER_68_558
*919 FILLER_68_564
*920 FILLER_68_589
*921 FILLER_68_613
*922 FILLER_68_643
*923 FILLER_68_65
*924 FILLER_68_654
*925 FILLER_68_666
*926 FILLER_68_678
*927 FILLER_68_682
*928 FILLER_68_691
*929 FILLER_68_699
*930 FILLER_68_701
*931 FILLER_68_73
*932 FILLER_69_113
*933 FILLER_69_132
*934 FILLER_69_140
*935 FILLER_69_15
*936 FILLER_69_152
*937 FILLER_69_158
*938 FILLER_69_178
*939 FILLER_69_184
*940 FILLER_69_218
*941 FILLER_69_240
*942 FILLER_69_244
*943 FILLER_69_254
*944 FILLER_69_27
*945 FILLER_69_276
*946 FILLER_69_281
*947 FILLER_69_287
*948 FILLER_69_3
*949 FILLER_69_337
*950 FILLER_69_349
*951 FILLER_69_353
*952 FILLER_69_39
*953 FILLER_69_402
*954 FILLER_69_408
*955 FILLER_69_429
*956 FILLER_69_442
*957 FILLER_69_449
*958 FILLER_69_498
*959 FILLER_69_51
*960 FILLER_69_514
*961 FILLER_69_529
*962 FILLER_69_55
*963 FILLER_69_553
*964 FILLER_69_559
*965 FILLER_69_57
*966 FILLER_69_578
*967 FILLER_69_590
*968 FILLER_69_654
*969 FILLER_69_666
*970 FILLER_69_673
*971 FILLER_69_685
*972 FILLER_69_69
*973 FILLER_69_697
*974 FILLER_69_709
*975 FILLER_69_91
*976 FILLER_6_708
*977 FILLER_6_712
*978 FILLER_70_129
*979 FILLER_70_15
*980 FILLER_70_170
*981 FILLER_70_197
*982 FILLER_70_203
*983 FILLER_70_27
*984 FILLER_70_282
*985 FILLER_70_29
*986 FILLER_70_3
*987 FILLER_70_306
*988 FILLER_70_309
*989 FILLER_70_333
*990 FILLER_70_354
*991 FILLER_70_41
*992 FILLER_70_439
*993 FILLER_70_473
*994 FILLER_70_494
*995 FILLER_70_515
*996 FILLER_70_53
*997 FILLER_70_533
*998 FILLER_70_545
*999 FILLER_70_555
*1000 FILLER_70_581
*1001 FILLER_70_587
*1002 FILLER_70_589
*1003 FILLER_70_612
*1004 FILLER_70_624
*1005 FILLER_70_643
*1006 FILLER_70_65
*1007 FILLER_70_653
*1008 FILLER_70_665
*1009 FILLER_70_677
*1010 FILLER_70_689
*1011 FILLER_70_697
*1012 FILLER_70_701
*1013 FILLER_70_73
*1014 FILLER_70_85
*1015 FILLER_71_103
*1016 FILLER_71_111
*1017 FILLER_71_122
*1018 FILLER_71_15
*1019 FILLER_71_153
*1020 FILLER_71_169
*1021 FILLER_71_195
*1022 FILLER_71_201
*1023 FILLER_71_222
*1024 FILLER_71_243
*1025 FILLER_71_260
*1026 FILLER_71_266
*1027 FILLER_71_27
*1028 FILLER_71_276
*1029 FILLER_71_297
*1030 FILLER_71_3
*1031 FILLER_71_320
*1032 FILLER_71_326
*1033 FILLER_71_366
*1034 FILLER_71_378
*1035 FILLER_71_382
*1036 FILLER_71_39
*1037 FILLER_71_422
*1038 FILLER_71_449
*1039 FILLER_71_478
*1040 FILLER_71_51
*1041 FILLER_71_513
*1042 FILLER_71_55
*1043 FILLER_71_558
*1044 FILLER_71_561
*1045 FILLER_71_57
*1046 FILLER_71_580
*1047 FILLER_71_592
*1048 FILLER_71_596
*1049 FILLER_71_606
*1050 FILLER_71_615
*1051 FILLER_71_617
*1052 FILLER_71_629
*1053 FILLER_71_658
*1054 FILLER_71_670
*1055 FILLER_71_673
*1056 FILLER_71_685
*1057 FILLER_71_69
*1058 FILLER_71_697
*1059 FILLER_71_709
*1060 FILLER_71_73
*1061 FILLER_72_120
*1062 FILLER_72_141
*1063 FILLER_72_15
*1064 FILLER_72_183
*1065 FILLER_72_194
*1066 FILLER_72_197
*1067 FILLER_72_230
*1068 FILLER_72_248
*1069 FILLER_72_27
*1070 FILLER_72_281
*1071 FILLER_72_29
*1072 FILLER_72_3
*1073 FILLER_72_305
*1074 FILLER_72_309
*1075 FILLER_72_357
*1076 FILLER_72_363
*1077 FILLER_72_374
*1078 FILLER_72_395
*1079 FILLER_72_399
*1080 FILLER_72_41
*1081 FILLER_72_421
*1082 FILLER_72_425
*1083 FILLER_72_455
*1084 FILLER_72_461
*1085 FILLER_72_473
*1086 FILLER_72_477
*1087 FILLER_72_509
*1088 FILLER_72_53
*1089 FILLER_72_542
*1090 FILLER_72_556
*1091 FILLER_72_583
*1092 FILLER_72_587
*1093 FILLER_72_607
*1094 FILLER_72_619
*1095 FILLER_72_631
*1096 FILLER_72_643
*1097 FILLER_72_645
*1098 FILLER_72_65
*1099 FILLER_72_657
*1100 FILLER_72_669
*1101 FILLER_72_681
*1102 FILLER_72_693
*1103 FILLER_72_699
*1104 FILLER_72_701
*1105 FILLER_72_73
*1106 FILLER_72_85
*1107 FILLER_73_122
*1108 FILLER_73_149
*1109 FILLER_73_15
*1110 FILLER_73_200
*1111 FILLER_73_223
*1112 FILLER_73_248
*1113 FILLER_73_27
*1114 FILLER_73_278
*1115 FILLER_73_3
*1116 FILLER_73_323
*1117 FILLER_73_337
*1118 FILLER_73_368
*1119 FILLER_73_39
*1120 FILLER_73_413
*1121 FILLER_73_419
*1122 FILLER_73_453
*1123 FILLER_73_474
*1124 FILLER_73_480
*1125 FILLER_73_502
*1126 FILLER_73_505
*1127 FILLER_73_51
*1128 FILLER_73_518
*1129 FILLER_73_55
*1130 FILLER_73_57
*1131 FILLER_73_581
*1132 FILLER_73_610
*1133 FILLER_73_617
*1134 FILLER_73_629
*1135 FILLER_73_641
*1136 FILLER_73_653
*1137 FILLER_73_665
*1138 FILLER_73_671
*1139 FILLER_73_673
*1140 FILLER_73_685
*1141 FILLER_73_69
*1142 FILLER_73_697
*1143 FILLER_73_709
*1144 FILLER_73_77
*1145 FILLER_74_114
*1146 FILLER_74_15
*1147 FILLER_74_150
*1148 FILLER_74_156
*1149 FILLER_74_177
*1150 FILLER_74_192
*1151 FILLER_74_206
*1152 FILLER_74_250
*1153 FILLER_74_27
*1154 FILLER_74_29
*1155 FILLER_74_3
*1156 FILLER_74_302
*1157 FILLER_74_326
*1158 FILLER_74_342
*1159 FILLER_74_363
*1160 FILLER_74_395
*1161 FILLER_74_41
*1162 FILLER_74_417
*1163 FILLER_74_430
*1164 FILLER_74_454
*1165 FILLER_74_475
*1166 FILLER_74_486
*1167 FILLER_74_525
*1168 FILLER_74_53
*1169 FILLER_74_531
*1170 FILLER_74_582
*1171 FILLER_74_620
*1172 FILLER_74_632
*1173 FILLER_74_645
*1174 FILLER_74_65
*1175 FILLER_74_657
*1176 FILLER_74_669
*1177 FILLER_74_681
*1178 FILLER_74_693
*1179 FILLER_74_699
*1180 FILLER_74_701
*1181 FILLER_74_73
*1182 FILLER_75_107
*1183 FILLER_75_111
*1184 FILLER_75_113
*1185 FILLER_75_147
*1186 FILLER_75_15
*1187 FILLER_75_169
*1188 FILLER_75_175
*1189 FILLER_75_204
*1190 FILLER_75_243
*1191 FILLER_75_264
*1192 FILLER_75_27
*1193 FILLER_75_277
*1194 FILLER_75_3
*1195 FILLER_75_318
*1196 FILLER_75_330
*1197 FILLER_75_337
*1198 FILLER_75_349
*1199 FILLER_75_361
*1200 FILLER_75_366
*1201 FILLER_75_39
*1202 FILLER_75_404
*1203 FILLER_75_433
*1204 FILLER_75_445
*1205 FILLER_75_486
*1206 FILLER_75_490
*1207 FILLER_75_500
*1208 FILLER_75_505
*1209 FILLER_75_51
*1210 FILLER_75_526
*1211 FILLER_75_530
*1212 FILLER_75_55
*1213 FILLER_75_554
*1214 FILLER_75_57
*1215 FILLER_75_586
*1216 FILLER_75_599
*1217 FILLER_75_610
*1218 FILLER_75_617
*1219 FILLER_75_629
*1220 FILLER_75_641
*1221 FILLER_75_653
*1222 FILLER_75_665
*1223 FILLER_75_671
*1224 FILLER_75_673
*1225 FILLER_75_685
*1226 FILLER_75_69
*1227 FILLER_75_697
*1228 FILLER_75_709
*1229 FILLER_75_77
*1230 FILLER_76_100
*1231 FILLER_76_122
*1232 FILLER_76_139
*1233 FILLER_76_141
*1234 FILLER_76_15
*1235 FILLER_76_159
*1236 FILLER_76_181
*1237 FILLER_76_194
*1238 FILLER_76_197
*1239 FILLER_76_210
*1240 FILLER_76_253
*1241 FILLER_76_264
*1242 FILLER_76_27
*1243 FILLER_76_270
*1244 FILLER_76_282
*1245 FILLER_76_29
*1246 FILLER_76_3
*1247 FILLER_76_303
*1248 FILLER_76_307
*1249 FILLER_76_315
*1250 FILLER_76_327
*1251 FILLER_76_377
*1252 FILLER_76_41
*1253 FILLER_76_414
*1254 FILLER_76_447
*1255 FILLER_76_469
*1256 FILLER_76_475
*1257 FILLER_76_488
*1258 FILLER_76_498
*1259 FILLER_76_519
*1260 FILLER_76_528
*1261 FILLER_76_53
*1262 FILLER_76_569
*1263 FILLER_76_582
*1264 FILLER_76_589
*1265 FILLER_76_597
*1266 FILLER_76_605
*1267 FILLER_76_617
*1268 FILLER_76_629
*1269 FILLER_76_641
*1270 FILLER_76_645
*1271 FILLER_76_65
*1272 FILLER_76_657
*1273 FILLER_76_669
*1274 FILLER_76_681
*1275 FILLER_76_693
*1276 FILLER_76_699
*1277 FILLER_76_701
*1278 FILLER_76_77
*1279 FILLER_76_83
*1280 FILLER_76_85
*1281 FILLER_76_91
*1282 FILLER_77_111
*1283 FILLER_77_113
*1284 FILLER_77_126
*1285 FILLER_77_132
*1286 FILLER_77_15
*1287 FILLER_77_153
*1288 FILLER_77_205
*1289 FILLER_77_209
*1290 FILLER_77_221
*1291 FILLER_77_27
*1292 FILLER_77_3
*1293 FILLER_77_318
*1294 FILLER_77_328
*1295 FILLER_77_363
*1296 FILLER_77_373
*1297 FILLER_77_381
*1298 FILLER_77_39
*1299 FILLER_77_418
*1300 FILLER_77_428
*1301 FILLER_77_478
*1302 FILLER_77_482
*1303 FILLER_77_503
*1304 FILLER_77_51
*1305 FILLER_77_531
*1306 FILLER_77_543
*1307 FILLER_77_55
*1308 FILLER_77_57
*1309 FILLER_77_584
*1310 FILLER_77_596
*1311 FILLER_77_608
*1312 FILLER_77_617
*1313 FILLER_77_629
*1314 FILLER_77_641
*1315 FILLER_77_653
*1316 FILLER_77_665
*1317 FILLER_77_671
*1318 FILLER_77_673
*1319 FILLER_77_685
*1320 FILLER_77_69
*1321 FILLER_77_697
*1322 FILLER_77_709
*1323 FILLER_77_81
*1324 FILLER_77_89
*1325 FILLER_77_99
*1326 FILLER_78_109
*1327 FILLER_78_131
*1328 FILLER_78_139
*1329 FILLER_78_15
*1330 FILLER_78_162
*1331 FILLER_78_217
*1332 FILLER_78_27
*1333 FILLER_78_282
*1334 FILLER_78_29
*1335 FILLER_78_298
*1336 FILLER_78_3
*1337 FILLER_78_330
*1338 FILLER_78_363
*1339 FILLER_78_383
*1340 FILLER_78_41
*1341 FILLER_78_418
*1342 FILLER_78_425
*1343 FILLER_78_446
*1344 FILLER_78_477
*1345 FILLER_78_483
*1346 FILLER_78_526
*1347 FILLER_78_53
*1348 FILLER_78_533
*1349 FILLER_78_541
*1350 FILLER_78_584
*1351 FILLER_78_589
*1352 FILLER_78_601
*1353 FILLER_78_613
*1354 FILLER_78_625
*1355 FILLER_78_637
*1356 FILLER_78_643
*1357 FILLER_78_645
*1358 FILLER_78_65
*1359 FILLER_78_657
*1360 FILLER_78_669
*1361 FILLER_78_681
*1362 FILLER_78_693
*1363 FILLER_78_699
*1364 FILLER_78_701
*1365 FILLER_78_77
*1366 FILLER_78_83
*1367 FILLER_78_85
*1368 FILLER_78_97
*1369 FILLER_79_105
*1370 FILLER_79_111
*1371 FILLER_79_113
*1372 FILLER_79_15
*1373 FILLER_79_169
*1374 FILLER_79_191
*1375 FILLER_79_225
*1376 FILLER_79_27
*1377 FILLER_79_275
*1378 FILLER_79_289
*1379 FILLER_79_3
*1380 FILLER_79_334
*1381 FILLER_79_337
*1382 FILLER_79_382
*1383 FILLER_79_39
*1384 FILLER_79_421
*1385 FILLER_79_447
*1386 FILLER_79_479
*1387 FILLER_79_483
*1388 FILLER_79_51
*1389 FILLER_79_522
*1390 FILLER_79_534
*1391 FILLER_79_546
*1392 FILLER_79_55
*1393 FILLER_79_558
*1394 FILLER_79_57
*1395 FILLER_79_571
*1396 FILLER_79_575
*1397 FILLER_79_582
*1398 FILLER_79_594
*1399 FILLER_79_606
*1400 FILLER_79_614
*1401 FILLER_79_617
*1402 FILLER_79_629
*1403 FILLER_79_641
*1404 FILLER_79_653
*1405 FILLER_79_665
*1406 FILLER_79_671
*1407 FILLER_79_673
*1408 FILLER_79_685
*1409 FILLER_79_69
*1410 FILLER_79_697
*1411 FILLER_79_709
*1412 FILLER_79_81
*1413 FILLER_79_93
*1414 FILLER_7_708
*1415 FILLER_7_712
*1416 FILLER_80_100
*1417 FILLER_80_141
*1418 FILLER_80_15
*1419 FILLER_80_169
*1420 FILLER_80_215
*1421 FILLER_80_225
*1422 FILLER_80_237
*1423 FILLER_80_253
*1424 FILLER_80_267
*1425 FILLER_80_27
*1426 FILLER_80_287
*1427 FILLER_80_29
*1428 FILLER_80_3
*1429 FILLER_80_349
*1430 FILLER_80_373
*1431 FILLER_80_388
*1432 FILLER_80_41
*1433 FILLER_80_410
*1434 FILLER_80_419
*1435 FILLER_80_427
*1436 FILLER_80_474
*1437 FILLER_80_483
*1438 FILLER_80_511
*1439 FILLER_80_523
*1440 FILLER_80_53
*1441 FILLER_80_531
*1442 FILLER_80_533
*1443 FILLER_80_545
*1444 FILLER_80_557
*1445 FILLER_80_561
*1446 FILLER_80_57
*1447 FILLER_80_573
*1448 FILLER_80_585
*1449 FILLER_80_589
*1450 FILLER_80_601
*1451 FILLER_80_613
*1452 FILLER_80_617
*1453 FILLER_80_629
*1454 FILLER_80_64
*1455 FILLER_80_641
*1456 FILLER_80_645
*1457 FILLER_80_657
*1458 FILLER_80_669
*1459 FILLER_80_673
*1460 FILLER_80_685
*1461 FILLER_80_697
*1462 FILLER_80_70
*1463 FILLER_80_701
*1464 FILLER_80_76