*SPEF "ieee 1481-1999"
*DESIGN "tt_um_openram_top"
*DATE "20:31:13 Friday August 22, 2025"
*VENDOR "The OpenROAD Project"
*PROGRAM "OpenROAD"
*VERSION "edf00dff99f6c40d67a30c0e22a8191c5d2ed9d6"
*DESIGN_FLOW "NAME_SCOPE LOCAL" "PIN_CAP NONE"
*DIVIDER /
*DELIMITER :
*BUS_DELIMITER []
*T_UNIT 1 NS
*C_UNIT 1 PF
*R_UNIT 1 OHM
*L_UNIT 1 HENRY

*NAME_MAP
*3 clk
*4 ena
*5 rst_n
*6 ui_in[0]
*7 ui_in[1]
*8 ui_in[2]
*9 ui_in[3]
*10 ui_in[4]
*11 ui_in[5]
*12 ui_in[6]
*13 ui_in[7]
*14 uio_in[0]
*15 uio_in[1]
*16 uio_in[2]
*17 uio_in[3]
*18 uio_in[4]
*19 uio_in[5]
*20 uio_in[6]
*21 uio_in[7]
*22 net58
*23 net59
*24 net60
*25 net61
*26 net62
*27 net63
*28 net64
*29 net65
*30 net66
*31 net67
*32 net68
*33 net69
*34 net70
*35 net71
*36 net72
*37 net73
*38 uo_out[0]
*39 uo_out[1]
*40 net74
*41 net75
*42 net76
*43 net77
*44 net78
*45 net79
*48 _000_
*49 _001_
*50 _002_
*51 _003_
*52 _004_
*53 _005_
*54 _006_
*55 _007_
*56 _008_
*57 _009_
*58 _010_
*59 _011_
*60 _012_
*61 _013_
*62 _014_
*63 _015_
*64 _016_
*65 _017_
*66 _018_
*67 _019_
*68 _020_
*69 _021_
*70 _022_
*71 _023_
*72 _024_
*73 _025_
*74 _026_
*75 _027_
*76 _028_
*77 _029_
*78 _030_
*79 _031_
*80 _032_
*81 _033_
*82 _034_
*83 _035_
*84 _036_
*85 _037_
*86 _038_
*87 _039_
*88 _040_
*89 _041_
*90 _042_
*91 _043_
*92 _044_
*93 _045_
*94 _046_
*95 _047_
*96 _048_
*97 _049_
*98 _050_
*99 _051_
*100 _052_
*101 _053_
*102 _054_
*103 _055_
*104 _056_
*105 _057_
*106 _058_
*107 _059_
*108 _060_
*109 _061_
*110 _062_
*111 _063_
*112 _064_
*113 _065_
*114 _066_
*115 _067_
*116 _068_
*117 _069_
*118 _070_
*119 _071_
*120 _072_
*121 _073_
*122 _074_
*123 _075_
*124 _076_
*125 _077_
*126 _078_
*127 _079_
*128 _080_
*129 _081_
*130 _082_
*131 _083_
*132 _084_
*133 _085_
*134 _086_
*135 _087_
*136 _088_
*137 _089_
*138 _090_
*139 _091_
*140 _092_
*141 _093_
*142 _094_
*143 _095_
*144 _096_
*145 _097_
*146 _098_
*147 _099_
*148 _100_
*149 _101_
*150 _102_
*151 _103_
*152 _104_
*153 _105_
*154 _106_
*155 _107_
*156 _108_
*157 _109_
*158 _110_
*159 _111_
*160 _112_
*161 _113_
*162 _114_
*163 _115_
*164 _116_
*165 _117_
*166 _118_
*167 _119_
*168 _120_
*169 _121_
*170 _122_
*171 _123_
*172 _124_
*173 _125_
*174 _126_
*175 _127_
*176 _128_
*177 _129_
*178 _130_
*179 _131_
*180 _132_
*181 _133_
*182 _134_
*183 _135_
*184 _136_
*185 _137_
*186 _138_
*187 _139_
*188 _140_
*189 _141_
*190 _142_
*191 _143_
*192 _144_
*193 _145_
*194 _146_
*195 _147_
*196 _148_
*197 _149_
*198 _150_
*199 _151_
*200 _152_
*201 _153_
*202 _154_
*203 _155_
*204 _156_
*205 _157_
*206 _158_
*207 _159_
*208 _160_
*209 _161_
*210 _162_
*211 _163_
*212 _164_
*213 _165_
*214 _166_
*215 _167_
*216 _168_
*217 _169_
*218 _170_
*219 _171_
*220 _172_
*221 _173_
*222 _174_
*223 _175_
*224 _176_
*225 _177_
*226 _178_
*227 _179_
*228 _180_
*229 _181_
*230 _182_
*231 _183_
*232 _184_
*233 _185_
*234 _186_
*235 _187_
*236 _188_
*237 _189_
*238 _190_
*239 _191_
*240 _192_
*241 _193_
*242 _194_
*243 _195_
*244 _196_
*245 _197_
*246 _198_
*247 _199_
*248 _200_
*249 _201_
*250 _202_
*251 _203_
*252 _204_
*253 _205_
*254 _206_
*255 _207_
*256 _208_
*257 _209_
*258 _210_
*259 _211_
*260 _212_
*261 _213_
*262 _214_
*263 _215_
*264 _216_
*265 _217_
*266 _218_
*267 _219_
*268 _220_
*269 _221_
*270 _222_
*271 _223_
*272 _224_
*273 _225_
*274 _226_
*275 _227_
*276 _228_
*277 _229_
*278 _230_
*279 _231_
*280 _232_
*281 _233_
*282 _234_
*283 _235_
*284 _236_
*285 _237_
*286 _238_
*287 _239_
*288 _240_
*289 _241_
*290 _242_
*291 _243_
*292 _244_
*293 _245_
*294 _246_
*295 _247_
*296 _248_
*297 _249_
*298 clknet_0_ui_in[3]
*299 clknet_0_ui_in[4]
*300 clknet_3_0__leaf_ui_in[3]
*301 clknet_3_0__leaf_ui_in[4]
*302 clknet_3_1__leaf_ui_in[3]
*303 clknet_3_1__leaf_ui_in[4]
*304 clknet_3_2__leaf_ui_in[3]
*305 clknet_3_2__leaf_ui_in[4]
*306 clknet_3_3__leaf_ui_in[3]
*307 clknet_3_3__leaf_ui_in[4]
*308 clknet_3_4__leaf_ui_in[3]
*309 clknet_3_4__leaf_ui_in[4]
*310 clknet_3_5__leaf_ui_in[3]
*311 clknet_3_5__leaf_ui_in[4]
*312 clknet_3_6__leaf_ui_in[3]
*313 clknet_3_6__leaf_ui_in[4]
*314 clknet_3_7__leaf_ui_in[3]
*315 clknet_3_7__leaf_ui_in[4]
*316 dout\[0\]
*317 dout\[10\]
*318 dout\[11\]
*319 dout\[12\]
*320 dout\[13\]
*321 dout\[14\]
*322 dout\[15\]
*323 dout\[16\]
*324 dout\[17\]
*325 dout\[18\]
*326 dout\[19\]
*327 dout\[1\]
*328 dout\[20\]
*329 dout\[21\]
*330 dout\[22\]
*331 dout\[23\]
*332 dout\[24\]
*333 dout\[25\]
*334 dout\[26\]
*335 dout\[27\]
*336 dout\[28\]
*337 dout\[29\]
*338 dout\[2\]
*339 dout\[30\]
*340 dout\[31\]
*341 dout\[32\]
*342 dout\[3\]
*343 dout\[4\]
*344 dout\[5\]
*345 dout\[6\]
*346 dout\[7\]
*347 dout\[8\]
*348 dout\[9\]
*349 net1
*350 net10
*351 net100
*352 net101
*353 net102
*354 net103
*355 net104
*356 net105
*357 net106
*358 net107
*359 net108
*360 net109
*361 net11
*362 net110
*363 net111
*364 net112
*365 net113
*366 net114
*367 net115
*368 net116
*369 net117
*370 net118
*371 net119
*372 net12
*373 net120
*374 net121
*375 net122
*376 net123
*377 net124
*378 net125
*379 net126
*380 net127
*381 net128
*382 net129
*383 net13
*384 net130
*385 net131
*386 net132
*387 net133
*388 net134
*389 net135
*390 net136
*391 net137
*392 net138
*393 net139
*394 net14
*395 net140
*396 net141
*397 net142
*398 net143
*399 net144
*400 net145
*401 net146
*402 net147
*403 net148
*404 net149
*405 net15
*406 net150
*407 net151
*408 net152
*409 net153
*410 net154
*411 net155
*412 net156
*413 net157
*414 net158
*415 net159
*416 net16
*417 net160
*418 net161
*419 net162
*420 net163
*421 net164
*422 net165
*423 net166
*424 net167
*425 net168
*426 net169
*427 net17
*428 net170
*429 net171
*430 net172
*431 net173
*432 net174
*433 net175
*434 net176
*435 net177
*436 net178
*437 net179
*438 net18
*439 net180
*440 net181
*441 net182
*442 net183
*443 net184
*444 net185
*445 net186
*446 net187
*447 net188
*448 net189
*449 net19
*450 net190
*451 net191
*452 net192
*453 net2
*454 net20
*455 net21
*456 net22
*457 net23
*458 net24
*459 net25
*460 net26
*461 net27
*462 net28
*463 net29
*464 net3
*465 net30
*466 net31
*467 net32
*468 net33
*469 net34
*470 net35
*471 net36
*472 net37
*473 net38
*474 net39
*475 net4
*476 net40
*477 net41
*478 net42
*479 net43
*480 net44
*481 net45
*482 net46
*483 net47
*484 net48
*485 net49
*486 net5
*487 net50
*488 net51
*489 net52
*490 net53
*491 net54
*492 net55
*493 net56
*494 net57
*495 net6
*496 net7
*497 net8
*498 net80
*499 net81
*500 net82
*501 net83
*502 net84
*503 net85
*504 net86
*505 net87
*506 net88
*507 net89
*508 net9
*509 net90
*510 net91
*511 net92
*512 net93
*513 net94
*514 net95
*515 net96
*516 net97
*517 net98
*518 net99
*519 scan_chain\.scan_cells\[0\]\.scan_cell\.data_out
*520 scan_chain\.scan_cells\[0\]\.scan_cell\.primary_ff
*521 scan_chain\.scan_cells\[10\]\.scan_cell\.data_out
*522 scan_chain\.scan_cells\[10\]\.scan_cell\.primary_ff
*523 scan_chain\.scan_cells\[10\]\.scan_cell\.scan_in
*524 scan_chain\.scan_cells\[11\]\.scan_cell\.data_out
*525 scan_chain\.scan_cells\[11\]\.scan_cell\.primary_ff
*526 scan_chain\.scan_cells\[12\]\.scan_cell\.data_out
*527 scan_chain\.scan_cells\[12\]\.scan_cell\.primary_ff
*528 scan_chain\.scan_cells\[13\]\.scan_cell\.data_out
*529 scan_chain\.scan_cells\[13\]\.scan_cell\.primary_ff
*530 scan_chain\.scan_cells\[14\]\.scan_cell\.data_out
*531 scan_chain\.scan_cells\[14\]\.scan_cell\.primary_ff
*532 scan_chain\.scan_cells\[15\]\.scan_cell\.data_out
*533 scan_chain\.scan_cells\[15\]\.scan_cell\.primary_ff
*534 scan_chain\.scan_cells\[16\]\.scan_cell\.data_out
*535 scan_chain\.scan_cells\[16\]\.scan_cell\.primary_ff
*536 scan_chain\.scan_cells\[17\]\.scan_cell\.data_out
*537 scan_chain\.scan_cells\[17\]\.scan_cell\.primary_ff
*538 scan_chain\.scan_cells\[18\]\.scan_cell\.data_out
*539 scan_chain\.scan_cells\[18\]\.scan_cell\.primary_ff
*540 scan_chain\.scan_cells\[19\]\.scan_cell\.data_out
*541 scan_chain\.scan_cells\[19\]\.scan_cell\.primary_ff
*542 scan_chain\.scan_cells\[1\]\.scan_cell\.data_out
*543 scan_chain\.scan_cells\[1\]\.scan_cell\.primary_ff
*544 scan_chain\.scan_cells\[20\]\.scan_cell\.data_out
*545 scan_chain\.scan_cells\[20\]\.scan_cell\.primary_ff
*546 scan_chain\.scan_cells\[21\]\.scan_cell\.data_out
*547 scan_chain\.scan_cells\[21\]\.scan_cell\.primary_ff
*548 scan_chain\.scan_cells\[22\]\.scan_cell\.data_out
*549 scan_chain\.scan_cells\[22\]\.scan_cell\.primary_ff
*550 scan_chain\.scan_cells\[23\]\.scan_cell\.data_out
*551 scan_chain\.scan_cells\[23\]\.scan_cell\.primary_ff
*552 scan_chain\.scan_cells\[24\]\.scan_cell\.data_out
*553 scan_chain\.scan_cells\[24\]\.scan_cell\.primary_ff
*554 scan_chain\.scan_cells\[25\]\.scan_cell\.data_out
*555 scan_chain\.scan_cells\[25\]\.scan_cell\.primary_ff
*556 scan_chain\.scan_cells\[26\]\.scan_cell\.data_out
*557 scan_chain\.scan_cells\[26\]\.scan_cell\.primary_ff
*558 scan_chain\.scan_cells\[27\]\.scan_cell\.data_out
*559 scan_chain\.scan_cells\[27\]\.scan_cell\.primary_ff
*560 scan_chain\.scan_cells\[28\]\.scan_cell\.data_out
*561 scan_chain\.scan_cells\[28\]\.scan_cell\.primary_ff
*562 scan_chain\.scan_cells\[29\]\.scan_cell\.data_out
*563 scan_chain\.scan_cells\[29\]\.scan_cell\.primary_ff
*564 scan_chain\.scan_cells\[2\]\.scan_cell\.data_out
*565 scan_chain\.scan_cells\[2\]\.scan_cell\.primary_ff
*566 scan_chain\.scan_cells\[30\]\.scan_cell\.data_out
*567 scan_chain\.scan_cells\[30\]\.scan_cell\.primary_ff
*568 scan_chain\.scan_cells\[31\]\.scan_cell\.data_out
*569 scan_chain\.scan_cells\[31\]\.scan_cell\.primary_ff
*570 scan_chain\.scan_cells\[32\]\.scan_cell\.data_out
*571 scan_chain\.scan_cells\[32\]\.scan_cell\.primary_ff
*572 scan_chain\.scan_cells\[33\]\.scan_cell\.data_in
*573 scan_chain\.scan_cells\[33\]\.scan_cell\.primary_ff
*574 scan_chain\.scan_cells\[34\]\.scan_cell\.data_in
*575 scan_chain\.scan_cells\[34\]\.scan_cell\.primary_ff
*576 scan_chain\.scan_cells\[35\]\.scan_cell\.data_in
*577 scan_chain\.scan_cells\[35\]\.scan_cell\.primary_ff
*578 scan_chain\.scan_cells\[36\]\.scan_cell\.data_in
*579 scan_chain\.scan_cells\[36\]\.scan_cell\.primary_ff
*580 scan_chain\.scan_cells\[37\]\.scan_cell\.data_in
*581 scan_chain\.scan_cells\[37\]\.scan_cell\.primary_ff
*582 scan_chain\.scan_cells\[38\]\.scan_cell\.data_in
*583 scan_chain\.scan_cells\[38\]\.scan_cell\.primary_ff
*584 scan_chain\.scan_cells\[39\]\.scan_cell\.data_in
*585 scan_chain\.scan_cells\[39\]\.scan_cell\.primary_ff
*586 scan_chain\.scan_cells\[3\]\.scan_cell\.data_out
*587 scan_chain\.scan_cells\[3\]\.scan_cell\.primary_ff
*588 scan_chain\.scan_cells\[40\]\.scan_cell\.data_in
*589 scan_chain\.scan_cells\[40\]\.scan_cell\.primary_ff
*590 scan_chain\.scan_cells\[41\]\.scan_cell\.data_in
*591 scan_chain\.scan_cells\[41\]\.scan_cell\.primary_ff
*592 scan_chain\.scan_cells\[42\]\.scan_cell\.data_in
*593 scan_chain\.scan_cells\[42\]\.scan_cell\.primary_ff
*594 scan_chain\.scan_cells\[43\]\.scan_cell\.data_in
*595 scan_chain\.scan_cells\[43\]\.scan_cell\.primary_ff
*596 scan_chain\.scan_cells\[44\]\.scan_cell\.data_in
*597 scan_chain\.scan_cells\[44\]\.scan_cell\.primary_ff
*598 scan_chain\.scan_cells\[45\]\.scan_cell\.data_in
*599 scan_chain\.scan_cells\[45\]\.scan_cell\.primary_ff
*600 scan_chain\.scan_cells\[46\]\.scan_cell\.data_in
*601 scan_chain\.scan_cells\[46\]\.scan_cell\.primary_ff
*602 scan_chain\.scan_cells\[47\]\.scan_cell\.data_in
*603 scan_chain\.scan_cells\[47\]\.scan_cell\.primary_ff
*604 scan_chain\.scan_cells\[48\]\.scan_cell\.data_in
*605 scan_chain\.scan_cells\[48\]\.scan_cell\.primary_ff
*606 scan_chain\.scan_cells\[49\]\.scan_cell\.data_in
*607 scan_chain\.scan_cells\[49\]\.scan_cell\.primary_ff
*608 scan_chain\.scan_cells\[4\]\.scan_cell\.data_out
*609 scan_chain\.scan_cells\[4\]\.scan_cell\.primary_ff
*610 scan_chain\.scan_cells\[50\]\.scan_cell\.data_in
*611 scan_chain\.scan_cells\[50\]\.scan_cell\.primary_ff
*612 scan_chain\.scan_cells\[51\]\.scan_cell\.data_in
*613 scan_chain\.scan_cells\[51\]\.scan_cell\.primary_ff
*614 scan_chain\.scan_cells\[52\]\.scan_cell\.data_in
*615 scan_chain\.scan_cells\[52\]\.scan_cell\.primary_ff
*616 scan_chain\.scan_cells\[53\]\.scan_cell\.data_in
*617 scan_chain\.scan_cells\[53\]\.scan_cell\.primary_ff
*618 scan_chain\.scan_cells\[54\]\.scan_cell\.data_in
*619 scan_chain\.scan_cells\[54\]\.scan_cell\.primary_ff
*620 scan_chain\.scan_cells\[55\]\.scan_cell\.data_in
*621 scan_chain\.scan_cells\[55\]\.scan_cell\.primary_ff
*622 scan_chain\.scan_cells\[56\]\.scan_cell\.data_in
*623 scan_chain\.scan_cells\[56\]\.scan_cell\.primary_ff
*624 scan_chain\.scan_cells\[57\]\.scan_cell\.data_in
*625 scan_chain\.scan_cells\[57\]\.scan_cell\.primary_ff
*626 scan_chain\.scan_cells\[58\]\.scan_cell\.data_in
*627 scan_chain\.scan_cells\[58\]\.scan_cell\.primary_ff
*628 scan_chain\.scan_cells\[59\]\.scan_cell\.data_in
*629 scan_chain\.scan_cells\[59\]\.scan_cell\.primary_ff
*630 scan_chain\.scan_cells\[5\]\.scan_cell\.data_out
*631 scan_chain\.scan_cells\[5\]\.scan_cell\.primary_ff
*632 scan_chain\.scan_cells\[60\]\.scan_cell\.data_in
*633 scan_chain\.scan_cells\[60\]\.scan_cell\.primary_ff
*634 scan_chain\.scan_cells\[61\]\.scan_cell\.data_in
*635 scan_chain\.scan_cells\[61\]\.scan_cell\.primary_ff
*636 scan_chain\.scan_cells\[62\]\.scan_cell\.data_in
*637 scan_chain\.scan_cells\[62\]\.scan_cell\.primary_ff
*638 scan_chain\.scan_cells\[63\]\.scan_cell\.data_in
*639 scan_chain\.scan_cells\[63\]\.scan_cell\.primary_ff
*640 scan_chain\.scan_cells\[64\]\.scan_cell\.data_in
*641 scan_chain\.scan_cells\[64\]\.scan_cell\.primary_ff
*642 scan_chain\.scan_cells\[65\]\.scan_cell\.data_in
*643 scan_chain\.scan_cells\[65\]\.scan_cell\.primary_ff
*644 scan_chain\.scan_cells\[66\]\.scan_cell\.data_in
*645 scan_chain\.scan_cells\[66\]\.scan_cell\.primary_ff
*646 scan_chain\.scan_cells\[67\]\.scan_cell\.data_in
*647 scan_chain\.scan_cells\[67\]\.scan_cell\.primary_ff
*648 scan_chain\.scan_cells\[68\]\.scan_cell\.data_in
*649 scan_chain\.scan_cells\[68\]\.scan_cell\.primary_ff
*650 scan_chain\.scan_cells\[69\]\.scan_cell\.data_in
*651 scan_chain\.scan_cells\[69\]\.scan_cell\.primary_ff
*652 scan_chain\.scan_cells\[6\]\.scan_cell\.data_out
*653 scan_chain\.scan_cells\[6\]\.scan_cell\.primary_ff
*654 scan_chain\.scan_cells\[70\]\.scan_cell\.data_in
*655 scan_chain\.scan_cells\[70\]\.scan_cell\.primary_ff
*656 scan_chain\.scan_cells\[71\]\.scan_cell\.data_in
*657 scan_chain\.scan_cells\[71\]\.scan_cell\.primary_ff
*658 scan_chain\.scan_cells\[7\]\.scan_cell\.data_out
*659 scan_chain\.scan_cells\[7\]\.scan_cell\.primary_ff
*660 scan_chain\.scan_cells\[8\]\.scan_cell\.data_out
*661 scan_chain\.scan_cells\[8\]\.scan_cell\.primary_ff
*662 scan_chain\.scan_cells\[9\]\.scan_cell\.primary_ff
*663 ANTENNA_1
*664 ANTENNA_10
*665 ANTENNA_11
*666 ANTENNA_12
*667 ANTENNA_13
*668 ANTENNA_14
*669 ANTENNA_15
*670 ANTENNA_16
*671 ANTENNA_17
*672 ANTENNA_18
*673 ANTENNA_19
*674 ANTENNA_2
*675 ANTENNA_20
*676 ANTENNA_21
*677 ANTENNA_22
*678 ANTENNA_23
*679 ANTENNA_24
*680 ANTENNA_25
*681 ANTENNA_26
*682 ANTENNA_27
*683 ANTENNA_28
*684 ANTENNA_29
*685 ANTENNA_3
*686 ANTENNA_4
*687 ANTENNA_5
*688 ANTENNA_6
*689 ANTENNA_7
*690 ANTENNA_8
*691 ANTENNA_9
*692 FILLER_0_688
*693 FILLER_0_710
*694 FILLER_10_688
*695 FILLER_10_692
*696 FILLER_10_695
*697 FILLER_10_707
*698 FILLER_11_688
*699 FILLER_11_692
*700 FILLER_11_702
*701 FILLER_11_710
*702 FILLER_12_688
*703 FILLER_12_710
*704 FILLER_13_688
*705 FILLER_13_692
*706 FILLER_13_695
*707 FILLER_14_688
*708 FILLER_14_692
*709 FILLER_14_702
*710 FILLER_15_688
*711 FILLER_15_710
*712 FILLER_16_688
*713 FILLER_17_688
*714 FILLER_17_712
*715 FILLER_18_688
*716 FILLER_18_710
*717 FILLER_19_688
*718 FILLER_19_712
*719 FILLER_1_688
*720 FILLER_1_694
*721 FILLER_1_697
*722 FILLER_1_709
*723 FILLER_20_688
*724 FILLER_20_700
*725 FILLER_20_712
*726 FILLER_21_688
*727 FILLER_21_710
*728 FILLER_22_688
*729 FILLER_22_700
*730 FILLER_22_712
*731 FILLER_23_688
*732 FILLER_23_700
*733 FILLER_23_712
*734 FILLER_24_688
*735 FILLER_24_705
*736 FILLER_25_688
*737 FILLER_27_688
*738 FILLER_27_710
*739 FILLER_28_688
*740 FILLER_28_698
*741 FILLER_28_710
*742 FILLER_29_688
*743 FILLER_29_705
*744 FILLER_2_688
*745 FILLER_2_692
*746 FILLER_2_704
*747 FILLER_30_688
*748 FILLER_30_700
*749 FILLER_30_712
*750 FILLER_31_688
*751 FILLER_31_705
*752 FILLER_32_688
*753 FILLER_32_710
*754 FILLER_33_688
*755 FILLER_34_688
*756 FILLER_34_698
*757 FILLER_34_710
*758 FILLER_35_688
*759 FILLER_35_711
*760 FILLER_36_688
*761 FILLER_37_688
*762 FILLER_37_710
*763 FILLER_38_688
*764 FILLER_38_711
*765 FILLER_39_688
*766 FILLER_3_690
*767 FILLER_3_694
*768 FILLER_3_697
*769 FILLER_3_709
*770 FILLER_40_688
*771 FILLER_40_710
*772 FILLER_41_708
*773 FILLER_41_712
*774 FILLER_42_697
*775 FILLER_42_709
*776 FILLER_43_688
*777 FILLER_43_692
*778 FILLER_43_704
*779 FILLER_43_712
*780 FILLER_44_688
*781 FILLER_44_710
*782 FILLER_45_694
*783 FILLER_46_708
*784 FILLER_46_712
*785 FILLER_47_688
*786 FILLER_48_688
*787 FILLER_48_710
*788 FILLER_49_688
*789 FILLER_49_705
*790 FILLER_4_706
*791 FILLER_4_712
*792 FILLER_50_688
*793 FILLER_50_700
*794 FILLER_50_712
*795 FILLER_51_688
*796 FILLER_51_700
*797 FILLER_51_712
*798 FILLER_52_688
*799 FILLER_52_703
*800 FILLER_52_711
*801 FILLER_53_688
*802 FILLER_53_710
*803 FILLER_54_688
*804 FILLER_54_694
*805 FILLER_54_704
*806 FILLER_55_688
*807 FILLER_55_710
*808 FILLER_56_688
*809 FILLER_57_688
*810 FILLER_57_705
*811 FILLER_58_712
*812 FILLER_59_688
*813 FILLER_59_709
*814 FILLER_5_708
*815 FILLER_5_712
*816 FILLER_60_688
*817 FILLER_60_710
*818 FILLER_61_688
*819 FILLER_61_694
*820 FILLER_61_704
*821 FILLER_62_688
*822 FILLER_62_700
*823 FILLER_62_712
*824 FILLER_63_688
*825 FILLER_63_709
*826 FILLER_64_697
*827 FILLER_64_709
*828 FILLER_65_708
*829 FILLER_65_712
*830 FILLER_66_688
*831 FILLER_66_698
*832 FILLER_66_709
*833 FILLER_67_131
*834 FILLER_67_139
*835 FILLER_67_141
*836 FILLER_67_15
*837 FILLER_67_153
*838 FILLER_67_164
*839 FILLER_67_193
*840 FILLER_67_206
*841 FILLER_67_221
*842 FILLER_67_234
*843 FILLER_67_246
*844 FILLER_67_253
*845 FILLER_67_27
*846 FILLER_67_274
*847 FILLER_67_29
*848 FILLER_67_290
*849 FILLER_67_3
*850 FILLER_67_301
*851 FILLER_67_307
*852 FILLER_67_309
*853 FILLER_67_317
*854 FILLER_67_328
*855 FILLER_67_337
*856 FILLER_67_349
*857 FILLER_67_355
*858 FILLER_67_365
*859 FILLER_67_371
*860 FILLER_67_41
*861 FILLER_67_413
*862 FILLER_67_419
*863 FILLER_67_438
*864 FILLER_67_446
*865 FILLER_67_449
*866 FILLER_67_475
*867 FILLER_67_477
*868 FILLER_67_489
*869 FILLER_67_501
*870 FILLER_67_522
*871 FILLER_67_53
*872 FILLER_67_530
*873 FILLER_67_533
*874 FILLER_67_539
*875 FILLER_67_57
*876 FILLER_67_570
*877 FILLER_67_589
*878 FILLER_67_615
*879 FILLER_67_637
*880 FILLER_67_643
*881 FILLER_67_654
*882 FILLER_67_666
*883 FILLER_67_673
*884 FILLER_67_69
*885 FILLER_67_695
*886 FILLER_67_699
*887 FILLER_67_701
*888 FILLER_67_81
*889 FILLER_67_85
*890 FILLER_67_93
*891 FILLER_68_110
*892 FILLER_68_139
*893 FILLER_68_15
*894 FILLER_68_152
*895 FILLER_68_214
*896 FILLER_68_235
*897 FILLER_68_247
*898 FILLER_68_251
*899 FILLER_68_253
*900 FILLER_68_27
*901 FILLER_68_29
*902 FILLER_68_3
*903 FILLER_68_306
*904 FILLER_68_309
*905 FILLER_68_335
*906 FILLER_68_343
*907 FILLER_68_374
*908 FILLER_68_378
*909 FILLER_68_41
*910 FILLER_68_417
*911 FILLER_68_421
*912 FILLER_68_444
*913 FILLER_68_452
*914 FILLER_68_486
*915 FILLER_68_498
*916 FILLER_68_504
*917 FILLER_68_525
*918 FILLER_68_53
*919 FILLER_68_531
*920 FILLER_68_533
*921 FILLER_68_573
*922 FILLER_68_589
*923 FILLER_68_612
*924 FILLER_68_643
*925 FILLER_68_65
*926 FILLER_68_654
*927 FILLER_68_666
*928 FILLER_68_678
*929 FILLER_68_699
*930 FILLER_68_701
*931 FILLER_68_77
*932 FILLER_68_83
*933 FILLER_68_85
*934 FILLER_69_110
*935 FILLER_69_133
*936 FILLER_69_145
*937 FILLER_69_15
*938 FILLER_69_169
*939 FILLER_69_234
*940 FILLER_69_246
*941 FILLER_69_27
*942 FILLER_69_278
*943 FILLER_69_281
*944 FILLER_69_3
*945 FILLER_69_332
*946 FILLER_69_345
*947 FILLER_69_353
*948 FILLER_69_386
*949 FILLER_69_39
*950 FILLER_69_393
*951 FILLER_69_397
*952 FILLER_69_447
*953 FILLER_69_449
*954 FILLER_69_498
*955 FILLER_69_51
*956 FILLER_69_534
*957 FILLER_69_538
*958 FILLER_69_55
*959 FILLER_69_556
*960 FILLER_69_569
*961 FILLER_69_57
*962 FILLER_69_615
*963 FILLER_69_617
*964 FILLER_69_627
*965 FILLER_69_65
*966 FILLER_69_671
*967 FILLER_69_673
*968 FILLER_69_685
*969 FILLER_69_689
*970 FILLER_69_698
*971 FILLER_69_710
*972 FILLER_6_688
*973 FILLER_70_103
*974 FILLER_70_107
*975 FILLER_70_117
*976 FILLER_70_121
*977 FILLER_70_139
*978 FILLER_70_141
*979 FILLER_70_15
*980 FILLER_70_217
*981 FILLER_70_236
*982 FILLER_70_246
*983 FILLER_70_253
*984 FILLER_70_27
*985 FILLER_70_284
*986 FILLER_70_29
*987 FILLER_70_3
*988 FILLER_70_303
*989 FILLER_70_307
*990 FILLER_70_309
*991 FILLER_70_322
*992 FILLER_70_332
*993 FILLER_70_344
*994 FILLER_70_352
*995 FILLER_70_374
*996 FILLER_70_41
*997 FILLER_70_416
*998 FILLER_70_421
*999 FILLER_70_459
*1000 FILLER_70_474
*1001 FILLER_70_498
*1002 FILLER_70_504
*1003 FILLER_70_53
*1004 FILLER_70_531
*1005 FILLER_70_533
*1006 FILLER_70_638
*1007 FILLER_70_65
*1008 FILLER_70_662
*1009 FILLER_70_674
*1010 FILLER_70_686
*1011 FILLER_70_698
*1012 FILLER_70_701
*1013 FILLER_70_73
*1014 FILLER_71_109
*1015 FILLER_71_113
*1016 FILLER_71_125
*1017 FILLER_71_15
*1018 FILLER_71_178
*1019 FILLER_71_245
*1020 FILLER_71_27
*1021 FILLER_71_298
*1022 FILLER_71_3
*1023 FILLER_71_309
*1024 FILLER_71_330
*1025 FILLER_71_337
*1026 FILLER_71_348
*1027 FILLER_71_370
*1028 FILLER_71_39
*1029 FILLER_71_391
*1030 FILLER_71_399
*1031 FILLER_71_409
*1032 FILLER_71_437
*1033 FILLER_71_458
*1034 FILLER_71_466
*1035 FILLER_71_502
*1036 FILLER_71_505
*1037 FILLER_71_51
*1038 FILLER_71_513
*1039 FILLER_71_55
*1040 FILLER_71_559
*1041 FILLER_71_57
*1042 FILLER_71_617
*1043 FILLER_71_637
*1044 FILLER_71_649
*1045 FILLER_71_661
*1046 FILLER_71_669
*1047 FILLER_71_673
*1048 FILLER_71_685
*1049 FILLER_71_69
*1050 FILLER_71_697
*1051 FILLER_71_709
*1052 FILLER_72_126
*1053 FILLER_72_130
*1054 FILLER_72_15
*1055 FILLER_72_150
*1056 FILLER_72_154
*1057 FILLER_72_191
*1058 FILLER_72_195
*1059 FILLER_72_197
*1060 FILLER_72_224
*1061 FILLER_72_251
*1062 FILLER_72_27
*1063 FILLER_72_29
*1064 FILLER_72_298
*1065 FILLER_72_3
*1066 FILLER_72_394
*1067 FILLER_72_41
*1068 FILLER_72_417
*1069 FILLER_72_429
*1070 FILLER_72_464
*1071 FILLER_72_506
*1072 FILLER_72_512
*1073 FILLER_72_53
*1074 FILLER_72_531
*1075 FILLER_72_533
*1076 FILLER_72_557
*1077 FILLER_72_576
*1078 FILLER_72_612
*1079 FILLER_72_624
*1080 FILLER_72_634
*1081 FILLER_72_642
*1082 FILLER_72_645
*1083 FILLER_72_65
*1084 FILLER_72_657
*1085 FILLER_72_669
*1086 FILLER_72_681
*1087 FILLER_72_693
*1088 FILLER_72_699
*1089 FILLER_72_701
*1090 FILLER_72_73
*1091 FILLER_73_113
*1092 FILLER_73_141
*1093 FILLER_73_15
*1094 FILLER_73_153
*1095 FILLER_73_165
*1096 FILLER_73_169
*1097 FILLER_73_173
*1098 FILLER_73_194
*1099 FILLER_73_218
*1100 FILLER_73_242
*1101 FILLER_73_27
*1102 FILLER_73_277
*1103 FILLER_73_3
*1104 FILLER_73_346
*1105 FILLER_73_39
*1106 FILLER_73_390
*1107 FILLER_73_422
*1108 FILLER_73_466
*1109 FILLER_73_499
*1110 FILLER_73_503
*1111 FILLER_73_505
*1112 FILLER_73_51
*1113 FILLER_73_511
*1114 FILLER_73_532
*1115 FILLER_73_540
*1116 FILLER_73_545
*1117 FILLER_73_55
*1118 FILLER_73_556
*1119 FILLER_73_57
*1120 FILLER_73_582
*1121 FILLER_73_611
*1122 FILLER_73_615
*1123 FILLER_73_617
*1124 FILLER_73_629
*1125 FILLER_73_641
*1126 FILLER_73_653
*1127 FILLER_73_665
*1128 FILLER_73_671
*1129 FILLER_73_673
*1130 FILLER_73_685
*1131 FILLER_73_697
*1132 FILLER_73_709
*1133 FILLER_74_114
*1134 FILLER_74_120
*1135 FILLER_74_139
*1136 FILLER_74_149
*1137 FILLER_74_15
*1138 FILLER_74_190
*1139 FILLER_74_226
*1140 FILLER_74_248
*1141 FILLER_74_253
*1142 FILLER_74_27
*1143 FILLER_74_270
*1144 FILLER_74_276
*1145 FILLER_74_29
*1146 FILLER_74_3
*1147 FILLER_74_305
*1148 FILLER_74_309
*1149 FILLER_74_354
*1150 FILLER_74_365
*1151 FILLER_74_382
*1152 FILLER_74_41
*1153 FILLER_74_416
*1154 FILLER_74_486
*1155 FILLER_74_529
*1156 FILLER_74_53
*1157 FILLER_74_582
*1158 FILLER_74_598
*1159 FILLER_74_613
*1160 FILLER_74_625
*1161 FILLER_74_637
*1162 FILLER_74_643
*1163 FILLER_74_645
*1164 FILLER_74_65
*1165 FILLER_74_657
*1166 FILLER_74_669
*1167 FILLER_74_681
*1168 FILLER_74_693
*1169 FILLER_74_699
*1170 FILLER_74_701
*1171 FILLER_74_73
*1172 FILLER_75_102
*1173 FILLER_75_113
*1174 FILLER_75_140
*1175 FILLER_75_148
*1176 FILLER_75_15
*1177 FILLER_75_169
*1178 FILLER_75_188
*1179 FILLER_75_219
*1180 FILLER_75_223
*1181 FILLER_75_225
*1182 FILLER_75_263
*1183 FILLER_75_267
*1184 FILLER_75_27
*1185 FILLER_75_277
*1186 FILLER_75_3
*1187 FILLER_75_309
*1188 FILLER_75_319
*1189 FILLER_75_333
*1190 FILLER_75_389
*1191 FILLER_75_39
*1192 FILLER_75_431
*1193 FILLER_75_441
*1194 FILLER_75_447
*1195 FILLER_75_458
*1196 FILLER_75_464
*1197 FILLER_75_485
*1198 FILLER_75_502
*1199 FILLER_75_51
*1200 FILLER_75_530
*1201 FILLER_75_536
*1202 FILLER_75_55
*1203 FILLER_75_57
*1204 FILLER_75_598
*1205 FILLER_75_610
*1206 FILLER_75_617
*1207 FILLER_75_630
*1208 FILLER_75_642
*1209 FILLER_75_654
*1210 FILLER_75_666
*1211 FILLER_75_673
*1212 FILLER_75_685
*1213 FILLER_75_69
*1214 FILLER_75_697
*1215 FILLER_75_709
*1216 FILLER_75_81
*1217 FILLER_76_120
*1218 FILLER_76_141
*1219 FILLER_76_147
*1220 FILLER_76_15
*1221 FILLER_76_157
*1222 FILLER_76_189
*1223 FILLER_76_195
*1224 FILLER_76_197
*1225 FILLER_76_212
*1226 FILLER_76_227
*1227 FILLER_76_250
*1228 FILLER_76_27
*1229 FILLER_76_29
*1230 FILLER_76_3
*1231 FILLER_76_326
*1232 FILLER_76_334
*1233 FILLER_76_339
*1234 FILLER_76_351
*1235 FILLER_76_374
*1236 FILLER_76_394
*1237 FILLER_76_41
*1238 FILLER_76_417
*1239 FILLER_76_430
*1240 FILLER_76_472
*1241 FILLER_76_477
*1242 FILLER_76_483
*1243 FILLER_76_528
*1244 FILLER_76_53
*1245 FILLER_76_533
*1246 FILLER_76_550
*1247 FILLER_76_556
*1248 FILLER_76_563
*1249 FILLER_76_593
*1250 FILLER_76_605
*1251 FILLER_76_617
*1252 FILLER_76_629
*1253 FILLER_76_641
*1254 FILLER_76_645
*1255 FILLER_76_65
*1256 FILLER_76_657
*1257 FILLER_76_669
*1258 FILLER_76_681
*1259 FILLER_76_693
*1260 FILLER_76_699
*1261 FILLER_76_701
*1262 FILLER_76_77
*1263 FILLER_76_83
*1264 FILLER_76_85
*1265 FILLER_76_97
*1266 FILLER_77_109
*1267 FILLER_77_113
*1268 FILLER_77_124
*1269 FILLER_77_15
*1270 FILLER_77_169
*1271 FILLER_77_219
*1272 FILLER_77_225
*1273 FILLER_77_248
*1274 FILLER_77_269
*1275 FILLER_77_27
*1276 FILLER_77_281
*1277 FILLER_77_291
*1278 FILLER_77_3
*1279 FILLER_77_328
*1280 FILLER_77_346
*1281 FILLER_77_354
*1282 FILLER_77_385
*1283 FILLER_77_39
*1284 FILLER_77_437
*1285 FILLER_77_447
*1286 FILLER_77_449
*1287 FILLER_77_489
*1288 FILLER_77_500
*1289 FILLER_77_51
*1290 FILLER_77_532
*1291 FILLER_77_544
*1292 FILLER_77_55
*1293 FILLER_77_559
*1294 FILLER_77_561
*1295 FILLER_77_569
*1296 FILLER_77_57
*1297 FILLER_77_582
*1298 FILLER_77_594
*1299 FILLER_77_606
*1300 FILLER_77_614
*1301 FILLER_77_617
*1302 FILLER_77_629
*1303 FILLER_77_641
*1304 FILLER_77_653
*1305 FILLER_77_665
*1306 FILLER_77_671
*1307 FILLER_77_673
*1308 FILLER_77_685
*1309 FILLER_77_69
*1310 FILLER_77_697
*1311 FILLER_77_709
*1312 FILLER_77_81
*1313 FILLER_77_93
*1314 FILLER_78_134
*1315 FILLER_78_15
*1316 FILLER_78_182
*1317 FILLER_78_217
*1318 FILLER_78_251
*1319 FILLER_78_268
*1320 FILLER_78_27
*1321 FILLER_78_29
*1322 FILLER_78_290
*1323 FILLER_78_3
*1324 FILLER_78_307
*1325 FILLER_78_309
*1326 FILLER_78_315
*1327 FILLER_78_359
*1328 FILLER_78_363
*1329 FILLER_78_365
*1330 FILLER_78_41
*1331 FILLER_78_438
*1332 FILLER_78_468
*1333 FILLER_78_485
*1334 FILLER_78_53
*1335 FILLER_78_533
*1336 FILLER_78_545
*1337 FILLER_78_557
*1338 FILLER_78_569
*1339 FILLER_78_581
*1340 FILLER_78_587
*1341 FILLER_78_589
*1342 FILLER_78_601
*1343 FILLER_78_613
*1344 FILLER_78_625
*1345 FILLER_78_637
*1346 FILLER_78_643
*1347 FILLER_78_645
*1348 FILLER_78_65
*1349 FILLER_78_657
*1350 FILLER_78_669
*1351 FILLER_78_681
*1352 FILLER_78_693
*1353 FILLER_78_699
*1354 FILLER_78_701
*1355 FILLER_78_77
*1356 FILLER_78_83
*1357 FILLER_78_85
*1358 FILLER_79_105
*1359 FILLER_79_113
*1360 FILLER_79_15
*1361 FILLER_79_169
*1362 FILLER_79_229
*1363 FILLER_79_239
*1364 FILLER_79_264
*1365 FILLER_79_27
*1366 FILLER_79_3
*1367 FILLER_79_346
*1368 FILLER_79_358
*1369 FILLER_79_389
*1370 FILLER_79_39
*1371 FILLER_79_393
*1372 FILLER_79_449
*1373 FILLER_79_478
*1374 FILLER_79_482
*1375 FILLER_79_503
*1376 FILLER_79_505
*1377 FILLER_79_51
*1378 FILLER_79_535
*1379 FILLER_79_547
*1380 FILLER_79_55
*1381 FILLER_79_559
*1382 FILLER_79_561
*1383 FILLER_79_57
*1384 FILLER_79_573
*1385 FILLER_79_585
*1386 FILLER_79_597
*1387 FILLER_79_609
*1388 FILLER_79_615
*1389 FILLER_79_617
*1390 FILLER_79_629
*1391 FILLER_79_641
*1392 FILLER_79_653
*1393 FILLER_79_665
*1394 FILLER_79_671
*1395 FILLER_79_673
*1396 FILLER_79_685
*1397 FILLER_79_69
*1398 FILLER_79_697
*1399 FILLER_79_709
*1400 FILLER_79_81
*1401 FILLER_79_93
*1402 FILLER_7_706
*1403 FILLER_7_712
*1404 FILLER_80_121
*1405 FILLER_80_15
*1406 FILLER_80_197
*1407 FILLER_80_253
*1408 FILLER_80_263
*1409 FILLER_80_27
*1410 FILLER_80_281
*1411 FILLER_80_29
*1412 FILLER_80_3
*1413 FILLER_80_321
*1414 FILLER_80_337
*1415 FILLER_80_349
*1416 FILLER_80_355
*1417 FILLER_80_365
*1418 FILLER_80_378
*1419 FILLER_80_390
*1420 FILLER_80_399
*1421 FILLER_80_41
*1422 FILLER_80_418
*1423 FILLER_80_447
*1424 FILLER_80_475
*1425 FILLER_80_481
*1426 FILLER_80_489
*1427 FILLER_80_502
*1428 FILLER_80_519
*1429 FILLER_80_53
*1430 FILLER_80_531
*1431 FILLER_80_533
*1432 FILLER_80_545
*1433 FILLER_80_557
*1434 FILLER_80_561
*1435 FILLER_80_57
*1436 FILLER_80_573
*1437 FILLER_80_585
*1438 FILLER_80_589
*1439 FILLER_80_601
*1440 FILLER_80_613
*1441 FILLER_80_617
*1442 FILLER_80_629
*1443 FILLER_80_64
*1444 FILLER_80_641
*1445 FILLER_80_645
*1446 FILLER_80_657
*1447 FILLER_80_669
*1448 FILLER_80_673
*1449 FILLER_80_685
*1450 FILLER_80_697
*1451 FILLER_80_70
*1452 FILLER_80_701
*1453 FILLER_80_76
*1454 FILLER_80_82
*1455 FILLER_80_88
*1456 FILLER_80_94
*1457 FILLER_8_710
*1458 FILLER_9_697
*1459 PHY_EDGE_ROW_0_2_Left_66
*1460 PHY_EDGE_ROW_0_2_Right_147
*1461 PHY_EDGE_ROW_10_2_Left_9
*1462 PHY_EDGE_ROW_10_2_Right_76