*SPEF "ieee 1481-1999"
*DESIGN "tt_um_openram_top"
*DATE "17:16:37 Monday August 25, 2025"
*VENDOR "The OpenROAD Project"
*PROGRAM "OpenROAD"
*VERSION "edf00dff99f6c40d67a30c0e22a8191c5d2ed9d6"
*DESIGN_FLOW "NAME_SCOPE LOCAL" "PIN_CAP NONE"
*DIVIDER /
*DELIMITER :
*BUS_DELIMITER []
*T_UNIT 1 NS
*C_UNIT 1 PF
*R_UNIT 1 OHM
*L_UNIT 1 HENRY

*NAME_MAP
*3 clk
*4 ena
*5 rst_n
*6 ui_in[0]
*7 ui_in[1]
*8 ui_in[2]
*9 ui_in[3]
*10 ui_in[4]
*11 ui_in[5]
*12 ui_in[6]
*13 ui_in[7]
*14 uio_in[0]
*15 uio_in[1]
*16 uio_in[2]
*17 uio_in[3]
*18 uio_in[4]
*19 uio_in[5]
*20 uio_in[6]
*21 uio_in[7]
*22 net58
*23 net59
*24 net60
*25 net61
*26 net62
*27 net63
*28 net64
*29 net65
*30 net66
*31 net67
*32 net68
*33 net69
*34 net70
*35 net71
*36 net72
*37 net73
*38 uo_out[0]
*39 uo_out[1]
*40 net74
*41 net75
*42 net76
*43 net77
*44 net78
*45 net79
*48 _000_
*49 _001_
*50 _002_
*51 _003_
*52 _004_
*53 _005_
*54 _006_
*55 _007_
*56 _008_
*57 _009_
*58 _010_
*59 _011_
*60 _012_
*61 _013_
*62 _014_
*63 _015_
*64 _016_
*65 _017_
*66 _018_
*67 _019_
*68 _020_
*69 _021_
*70 _022_
*71 _023_
*72 _024_
*73 _025_
*74 _026_
*75 _027_
*76 _028_
*77 _029_
*78 _030_
*79 _031_
*80 _032_
*81 _033_
*82 _034_
*83 _035_
*84 _036_
*85 _037_
*86 _038_
*87 _039_
*88 _040_
*89 _041_
*90 _042_
*91 _043_
*92 _044_
*93 _045_
*94 _046_
*95 _047_
*96 _048_
*97 _049_
*98 _050_
*99 _051_
*100 _052_
*101 _053_
*102 _054_
*103 _055_
*104 _056_
*105 _057_
*106 _058_
*107 _059_
*108 _060_
*109 _061_
*110 _062_
*111 _063_
*112 _064_
*113 _065_
*114 _066_
*115 _067_
*116 _068_
*117 _069_
*118 _070_
*119 _071_
*120 _072_
*121 _073_
*122 _074_
*123 _075_
*124 _076_
*125 _077_
*126 _078_
*127 _079_
*128 _080_
*129 _081_
*130 _082_
*131 _083_
*132 _084_
*133 _085_
*134 _086_
*135 _087_
*136 _088_
*137 _089_
*138 _090_
*139 _091_
*140 _092_
*141 _093_
*142 _094_
*143 _095_
*144 _096_
*145 _097_
*146 _098_
*147 _099_
*148 _100_
*149 _101_
*150 _102_
*151 _103_
*152 _104_
*153 _105_
*154 _106_
*155 _107_
*156 _108_
*157 _109_
*158 _110_
*159 _111_
*160 _112_
*161 _113_
*162 _114_
*163 _115_
*164 _116_
*165 _117_
*166 _118_
*167 _119_
*168 _120_
*169 _121_
*170 _122_
*171 _123_
*172 _124_
*173 _125_
*174 _126_
*175 _127_
*176 _128_
*177 _129_
*178 _130_
*179 _131_
*180 _132_
*181 _133_
*182 _134_
*183 _135_
*184 _136_
*185 _137_
*186 _138_
*187 _139_
*188 _140_
*189 _141_
*190 _142_
*191 _143_
*192 _144_
*193 _145_
*194 _146_
*195 _147_
*196 _148_
*197 _149_
*198 _150_
*199 _151_
*200 _152_
*201 _153_
*202 _154_
*203 _155_
*204 _156_
*205 _157_
*206 _158_
*207 _159_
*208 _160_
*209 _161_
*210 _162_
*211 _163_
*212 _164_
*213 _165_
*214 _166_
*215 _167_
*216 _168_
*217 _169_
*218 _170_
*219 _171_
*220 _172_
*221 _173_
*222 _174_
*223 _175_
*224 _176_
*225 _177_
*226 _178_
*227 _179_
*228 _180_
*229 _181_
*230 _182_
*231 _183_
*232 _184_
*233 _185_
*234 _186_
*235 _187_
*236 _188_
*237 _189_
*238 _190_
*239 _191_
*240 _192_
*241 _193_
*242 _194_
*243 _195_
*244 _196_
*245 _197_
*246 _198_
*247 _199_
*248 _200_
*249 _201_
*250 _202_
*251 _203_
*252 _204_
*253 _205_
*254 _206_
*255 _207_
*256 _208_
*257 _209_
*258 _210_
*259 _211_
*260 _212_
*261 _213_
*262 _214_
*263 _215_
*264 _216_
*265 _217_
*266 _218_
*267 _219_
*268 _220_
*269 _221_
*270 _222_
*271 _223_
*272 _224_
*273 _225_
*274 _226_
*275 _227_
*276 _228_
*277 _229_
*278 _230_
*279 _231_
*280 _232_
*281 _233_
*282 _234_
*283 _235_
*284 _236_
*285 _237_
*286 _238_
*287 _239_
*288 _240_
*289 _241_
*290 _242_
*291 _243_
*292 _244_
*293 _245_
*294 _246_
*295 _247_
*296 _248_
*297 _249_
*298 clknet_0_ui_in[3]
*299 clknet_0_ui_in[4]
*300 clknet_3_0__leaf_ui_in[3]
*301 clknet_3_0__leaf_ui_in[4]
*302 clknet_3_1__leaf_ui_in[3]
*303 clknet_3_1__leaf_ui_in[4]
*304 clknet_3_2__leaf_ui_in[3]
*305 clknet_3_2__leaf_ui_in[4]
*306 clknet_3_3__leaf_ui_in[3]
*307 clknet_3_3__leaf_ui_in[4]
*308 clknet_3_4__leaf_ui_in[3]
*309 clknet_3_4__leaf_ui_in[4]
*310 clknet_3_5__leaf_ui_in[3]
*311 clknet_3_5__leaf_ui_in[4]
*312 clknet_3_6__leaf_ui_in[3]
*313 clknet_3_6__leaf_ui_in[4]
*314 clknet_3_7__leaf_ui_in[3]
*315 clknet_3_7__leaf_ui_in[4]
*316 dout\[0\]
*317 dout\[10\]
*318 dout\[11\]
*319 dout\[12\]
*320 dout\[13\]
*321 dout\[14\]
*322 dout\[15\]
*323 dout\[16\]
*324 dout\[17\]
*325 dout\[18\]
*326 dout\[19\]
*327 dout\[1\]
*328 dout\[20\]
*329 dout\[21\]
*330 dout\[22\]
*331 dout\[23\]
*332 dout\[24\]
*333 dout\[25\]
*334 dout\[26\]
*335 dout\[27\]
*336 dout\[28\]
*337 dout\[29\]
*338 dout\[2\]
*339 dout\[30\]
*340 dout\[31\]
*341 dout\[32\]
*342 dout\[3\]
*343 dout\[4\]
*344 dout\[5\]
*345 dout\[6\]
*346 dout\[7\]
*347 dout\[8\]
*348 dout\[9\]
*349 net1
*350 net10
*351 net100
*352 net101
*353 net102
*354 net103
*355 net104
*356 net105
*357 net106
*358 net107
*359 net108
*360 net109
*361 net11
*362 net110
*363 net111
*364 net112
*365 net113
*366 net114
*367 net115
*368 net116
*369 net117
*370 net118
*371 net119
*372 net12
*373 net120
*374 net121
*375 net122
*376 net123
*377 net124
*378 net125
*379 net126
*380 net127
*381 net128
*382 net129
*383 net13
*384 net130
*385 net131
*386 net132
*387 net133
*388 net134
*389 net135
*390 net136
*391 net137
*392 net138
*393 net139
*394 net14
*395 net140
*396 net141
*397 net142
*398 net143
*399 net144
*400 net145
*401 net146
*402 net147
*403 net148
*404 net149
*405 net15
*406 net150
*407 net151
*408 net152
*409 net153
*410 net154
*411 net155
*412 net156
*413 net157
*414 net158
*415 net159
*416 net16
*417 net160
*418 net161
*419 net162
*420 net163
*421 net164
*422 net165
*423 net166
*424 net167
*425 net168
*426 net169
*427 net17
*428 net170
*429 net171
*430 net172
*431 net173
*432 net174
*433 net175
*434 net176
*435 net177
*436 net178
*437 net179
*438 net18
*439 net180
*440 net181
*441 net182
*442 net183
*443 net184
*444 net185
*445 net186
*446 net187
*447 net188
*448 net189
*449 net19
*450 net2
*451 net20
*452 net21
*453 net22
*454 net23
*455 net24
*456 net25
*457 net26
*458 net27
*459 net28
*460 net29
*461 net3
*462 net30
*463 net31
*464 net32
*465 net33
*466 net34
*467 net35
*468 net36
*469 net37
*470 net38
*471 net39
*472 net4
*473 net40
*474 net41
*475 net42
*476 net43
*477 net44
*478 net45
*479 net46
*480 net47
*481 net48
*482 net49
*483 net5
*484 net50
*485 net51
*486 net52
*487 net53
*488 net54
*489 net55
*490 net56
*491 net57
*492 net6
*493 net7
*494 net8
*495 net80
*496 net81
*497 net82
*498 net83
*499 net84
*500 net85
*501 net86
*502 net87
*503 net88
*504 net89
*505 net9
*506 net90
*507 net91
*508 net92
*509 net93
*510 net94
*511 net95
*512 net96
*513 net97
*514 net98
*515 net99
*516 scan_chain\.scan_cells\[0\]\.scan_cell\.data_out
*517 scan_chain\.scan_cells\[0\]\.scan_cell\.primary_ff
*518 scan_chain\.scan_cells\[10\]\.scan_cell\.data_out
*519 scan_chain\.scan_cells\[10\]\.scan_cell\.primary_ff
*520 scan_chain\.scan_cells\[10\]\.scan_cell\.scan_in
*521 scan_chain\.scan_cells\[11\]\.scan_cell\.data_out
*522 scan_chain\.scan_cells\[11\]\.scan_cell\.primary_ff
*523 scan_chain\.scan_cells\[12\]\.scan_cell\.data_out
*524 scan_chain\.scan_cells\[12\]\.scan_cell\.primary_ff
*525 scan_chain\.scan_cells\[13\]\.scan_cell\.data_out
*526 scan_chain\.scan_cells\[13\]\.scan_cell\.primary_ff
*527 scan_chain\.scan_cells\[14\]\.scan_cell\.data_out
*528 scan_chain\.scan_cells\[14\]\.scan_cell\.primary_ff
*529 scan_chain\.scan_cells\[15\]\.scan_cell\.data_out
*530 scan_chain\.scan_cells\[15\]\.scan_cell\.primary_ff
*531 scan_chain\.scan_cells\[16\]\.scan_cell\.data_out
*532 scan_chain\.scan_cells\[16\]\.scan_cell\.primary_ff
*533 scan_chain\.scan_cells\[17\]\.scan_cell\.data_out
*534 scan_chain\.scan_cells\[17\]\.scan_cell\.primary_ff
*535 scan_chain\.scan_cells\[18\]\.scan_cell\.data_out
*536 scan_chain\.scan_cells\[18\]\.scan_cell\.primary_ff
*537 scan_chain\.scan_cells\[19\]\.scan_cell\.data_out
*538 scan_chain\.scan_cells\[19\]\.scan_cell\.primary_ff
*539 scan_chain\.scan_cells\[1\]\.scan_cell\.data_out
*540 scan_chain\.scan_cells\[1\]\.scan_cell\.primary_ff
*541 scan_chain\.scan_cells\[20\]\.scan_cell\.data_out
*542 scan_chain\.scan_cells\[20\]\.scan_cell\.primary_ff
*543 scan_chain\.scan_cells\[21\]\.scan_cell\.data_out
*544 scan_chain\.scan_cells\[21\]\.scan_cell\.primary_ff
*545 scan_chain\.scan_cells\[22\]\.scan_cell\.data_out
*546 scan_chain\.scan_cells\[22\]\.scan_cell\.primary_ff
*547 scan_chain\.scan_cells\[23\]\.scan_cell\.data_out
*548 scan_chain\.scan_cells\[23\]\.scan_cell\.primary_ff
*549 scan_chain\.scan_cells\[24\]\.scan_cell\.data_out
*550 scan_chain\.scan_cells\[24\]\.scan_cell\.primary_ff
*551 scan_chain\.scan_cells\[25\]\.scan_cell\.data_out
*552 scan_chain\.scan_cells\[25\]\.scan_cell\.primary_ff
*553 scan_chain\.scan_cells\[26\]\.scan_cell\.data_out
*554 scan_chain\.scan_cells\[26\]\.scan_cell\.primary_ff
*555 scan_chain\.scan_cells\[27\]\.scan_cell\.data_out
*556 scan_chain\.scan_cells\[27\]\.scan_cell\.primary_ff
*557 scan_chain\.scan_cells\[28\]\.scan_cell\.data_out
*558 scan_chain\.scan_cells\[28\]\.scan_cell\.primary_ff
*559 scan_chain\.scan_cells\[29\]\.scan_cell\.data_out
*560 scan_chain\.scan_cells\[29\]\.scan_cell\.primary_ff
*561 scan_chain\.scan_cells\[2\]\.scan_cell\.data_out
*562 scan_chain\.scan_cells\[2\]\.scan_cell\.primary_ff
*563 scan_chain\.scan_cells\[30\]\.scan_cell\.data_out
*564 scan_chain\.scan_cells\[30\]\.scan_cell\.primary_ff
*565 scan_chain\.scan_cells\[31\]\.scan_cell\.data_out
*566 scan_chain\.scan_cells\[31\]\.scan_cell\.primary_ff
*567 scan_chain\.scan_cells\[32\]\.scan_cell\.data_out
*568 scan_chain\.scan_cells\[32\]\.scan_cell\.primary_ff
*569 scan_chain\.scan_cells\[33\]\.scan_cell\.data_in
*570 scan_chain\.scan_cells\[33\]\.scan_cell\.primary_ff
*571 scan_chain\.scan_cells\[34\]\.scan_cell\.data_in
*572 scan_chain\.scan_cells\[34\]\.scan_cell\.primary_ff
*573 scan_chain\.scan_cells\[35\]\.scan_cell\.data_in
*574 scan_chain\.scan_cells\[35\]\.scan_cell\.primary_ff
*575 scan_chain\.scan_cells\[36\]\.scan_cell\.data_in
*576 scan_chain\.scan_cells\[36\]\.scan_cell\.primary_ff
*577 scan_chain\.scan_cells\[37\]\.scan_cell\.data_in
*578 scan_chain\.scan_cells\[37\]\.scan_cell\.primary_ff
*579 scan_chain\.scan_cells\[38\]\.scan_cell\.data_in
*580 scan_chain\.scan_cells\[38\]\.scan_cell\.primary_ff
*581 scan_chain\.scan_cells\[39\]\.scan_cell\.data_in
*582 scan_chain\.scan_cells\[39\]\.scan_cell\.primary_ff
*583 scan_chain\.scan_cells\[3\]\.scan_cell\.data_out
*584 scan_chain\.scan_cells\[3\]\.scan_cell\.primary_ff
*585 scan_chain\.scan_cells\[40\]\.scan_cell\.data_in
*586 scan_chain\.scan_cells\[40\]\.scan_cell\.primary_ff
*587 scan_chain\.scan_cells\[41\]\.scan_cell\.data_in
*588 scan_chain\.scan_cells\[41\]\.scan_cell\.primary_ff
*589 scan_chain\.scan_cells\[42\]\.scan_cell\.data_in
*590 scan_chain\.scan_cells\[42\]\.scan_cell\.primary_ff
*591 scan_chain\.scan_cells\[43\]\.scan_cell\.data_in
*592 scan_chain\.scan_cells\[43\]\.scan_cell\.primary_ff
*593 scan_chain\.scan_cells\[44\]\.scan_cell\.data_in
*594 scan_chain\.scan_cells\[44\]\.scan_cell\.primary_ff
*595 scan_chain\.scan_cells\[45\]\.scan_cell\.data_in
*596 scan_chain\.scan_cells\[45\]\.scan_cell\.primary_ff
*597 scan_chain\.scan_cells\[46\]\.scan_cell\.data_in
*598 scan_chain\.scan_cells\[46\]\.scan_cell\.primary_ff
*599 scan_chain\.scan_cells\[47\]\.scan_cell\.data_in
*600 scan_chain\.scan_cells\[47\]\.scan_cell\.primary_ff
*601 scan_chain\.scan_cells\[48\]\.scan_cell\.data_in
*602 scan_chain\.scan_cells\[48\]\.scan_cell\.primary_ff
*603 scan_chain\.scan_cells\[49\]\.scan_cell\.data_in
*604 scan_chain\.scan_cells\[49\]\.scan_cell\.primary_ff
*605 scan_chain\.scan_cells\[4\]\.scan_cell\.data_out
*606 scan_chain\.scan_cells\[4\]\.scan_cell\.primary_ff
*607 scan_chain\.scan_cells\[50\]\.scan_cell\.data_in
*608 scan_chain\.scan_cells\[50\]\.scan_cell\.primary_ff
*609 scan_chain\.scan_cells\[51\]\.scan_cell\.data_in
*610 scan_chain\.scan_cells\[51\]\.scan_cell\.primary_ff
*611 scan_chain\.scan_cells\[52\]\.scan_cell\.data_in
*612 scan_chain\.scan_cells\[52\]\.scan_cell\.primary_ff
*613 scan_chain\.scan_cells\[53\]\.scan_cell\.data_in
*614 scan_chain\.scan_cells\[53\]\.scan_cell\.primary_ff
*615 scan_chain\.scan_cells\[54\]\.scan_cell\.data_in
*616 scan_chain\.scan_cells\[54\]\.scan_cell\.primary_ff
*617 scan_chain\.scan_cells\[55\]\.scan_cell\.data_in
*618 scan_chain\.scan_cells\[55\]\.scan_cell\.primary_ff
*619 scan_chain\.scan_cells\[56\]\.scan_cell\.data_in
*620 scan_chain\.scan_cells\[56\]\.scan_cell\.primary_ff
*621 scan_chain\.scan_cells\[57\]\.scan_cell\.data_in
*622 scan_chain\.scan_cells\[57\]\.scan_cell\.primary_ff
*623 scan_chain\.scan_cells\[58\]\.scan_cell\.data_in
*624 scan_chain\.scan_cells\[58\]\.scan_cell\.primary_ff
*625 scan_chain\.scan_cells\[59\]\.scan_cell\.data_in
*626 scan_chain\.scan_cells\[59\]\.scan_cell\.primary_ff
*627 scan_chain\.scan_cells\[5\]\.scan_cell\.data_out
*628 scan_chain\.scan_cells\[5\]\.scan_cell\.primary_ff
*629 scan_chain\.scan_cells\[60\]\.scan_cell\.data_in
*630 scan_chain\.scan_cells\[60\]\.scan_cell\.primary_ff
*631 scan_chain\.scan_cells\[61\]\.scan_cell\.data_in
*632 scan_chain\.scan_cells\[61\]\.scan_cell\.primary_ff
*633 scan_chain\.scan_cells\[62\]\.scan_cell\.data_in
*634 scan_chain\.scan_cells\[62\]\.scan_cell\.primary_ff
*635 scan_chain\.scan_cells\[63\]\.scan_cell\.data_in
*636 scan_chain\.scan_cells\[63\]\.scan_cell\.primary_ff
*637 scan_chain\.scan_cells\[64\]\.scan_cell\.data_in
*638 scan_chain\.scan_cells\[64\]\.scan_cell\.primary_ff
*639 scan_chain\.scan_cells\[65\]\.scan_cell\.data_in
*640 scan_chain\.scan_cells\[65\]\.scan_cell\.primary_ff
*641 scan_chain\.scan_cells\[66\]\.scan_cell\.data_in
*642 scan_chain\.scan_cells\[66\]\.scan_cell\.primary_ff
*643 scan_chain\.scan_cells\[67\]\.scan_cell\.data_in
*644 scan_chain\.scan_cells\[67\]\.scan_cell\.primary_ff
*645 scan_chain\.scan_cells\[68\]\.scan_cell\.data_in
*646 scan_chain\.scan_cells\[68\]\.scan_cell\.primary_ff
*647 scan_chain\.scan_cells\[69\]\.scan_cell\.data_in
*648 scan_chain\.scan_cells\[69\]\.scan_cell\.primary_ff
*649 scan_chain\.scan_cells\[6\]\.scan_cell\.data_out
*650 scan_chain\.scan_cells\[6\]\.scan_cell\.primary_ff
*651 scan_chain\.scan_cells\[70\]\.scan_cell\.data_in
*652 scan_chain\.scan_cells\[70\]\.scan_cell\.primary_ff
*653 scan_chain\.scan_cells\[71\]\.scan_cell\.data_in
*654 scan_chain\.scan_cells\[71\]\.scan_cell\.primary_ff
*655 scan_chain\.scan_cells\[7\]\.scan_cell\.data_out
*656 scan_chain\.scan_cells\[7\]\.scan_cell\.primary_ff
*657 scan_chain\.scan_cells\[8\]\.scan_cell\.data_out
*658 scan_chain\.scan_cells\[8\]\.scan_cell\.primary_ff
*659 scan_chain\.scan_cells\[9\]\.scan_cell\.primary_ff
*660 ANTENNA_1
*661 ANTENNA_10
*662 ANTENNA_11
*663 ANTENNA_12
*664 ANTENNA_13
*665 ANTENNA_14
*666 ANTENNA_15
*667 ANTENNA_16
*668 ANTENNA_17
*669 ANTENNA_18
*670 ANTENNA_19
*671 ANTENNA_2
*672 ANTENNA_20
*673 ANTENNA_21
*674 ANTENNA_22
*675 ANTENNA_23
*676 ANTENNA_24
*677 ANTENNA_25
*678 ANTENNA_26
*679 ANTENNA_27
*680 ANTENNA_28
*681 ANTENNA_29
*682 ANTENNA_3
*683 ANTENNA_30
*684 ANTENNA_4
*685 ANTENNA_5
*686 ANTENNA_6
*687 ANTENNA_7
*688 ANTENNA_8
*689 ANTENNA_9
*690 FILLER_0_688
*691 FILLER_0_700
*692 FILLER_0_704
*693 FILLER_10_706
*694 FILLER_10_712
*695 FILLER_11_694
*696 FILLER_11_706
*697 FILLER_11_712
*698 FILLER_12_688
*699 FILLER_12_694
*700 FILLER_12_704
*701 FILLER_13_688
*702 FILLER_13_694
*703 FILLER_13_706
*704 FILLER_13_712
*705 FILLER_14_688
*706 FILLER_14_710
*707 FILLER_15_688
*708 FILLER_16_688
*709 FILLER_16_710
*710 FILLER_17_688
*711 FILLER_18_688
*712 FILLER_18_705
*713 FILLER_19_688
*714 FILLER_19_694
*715 FILLER_19_704
*716 FILLER_19_712
*717 FILLER_1_688
*718 FILLER_1_707
*719 FILLER_20_688
*720 FILLER_20_694
*721 FILLER_20_704
*722 FILLER_21_688
*723 FILLER_21_710
*724 FILLER_22_688
*725 FILLER_23_688
*726 FILLER_23_700
*727 FILLER_23_712
*728 FILLER_24_688
*729 FILLER_24_700
*730 FILLER_24_712
*731 FILLER_25_688
*732 FILLER_25_700
*733 FILLER_25_712
*734 FILLER_26_688
*735 FILLER_26_710
*736 FILLER_27_688
*737 FILLER_27_698
*738 FILLER_27_710
*739 FILLER_28_705
*740 FILLER_29_688
*741 FILLER_29_705
*742 FILLER_2_688
*743 FILLER_30_688
*744 FILLER_30_694
*745 FILLER_30_697
*746 FILLER_30_709
*747 FILLER_31_688
*748 FILLER_31_694
*749 FILLER_32_688
*750 FILLER_32_710
*751 FILLER_33_688
*752 FILLER_34_688
*753 FILLER_35_688
*754 FILLER_35_710
*755 FILLER_36_688
*756 FILLER_36_705
*757 FILLER_37_688
*758 FILLER_37_705
*759 FILLER_38_688
*760 FILLER_38_696
*761 FILLER_38_709
*762 FILLER_39_688
*763 FILLER_39_710
*764 FILLER_3_688
*765 FILLER_3_707
*766 FILLER_40_688
*767 FILLER_40_700
*768 FILLER_40_712
*769 FILLER_41_704
*770 FILLER_41_712
*771 FILLER_42_708
*772 FILLER_42_712
*773 FILLER_43_688
*774 FILLER_43_710
*775 FILLER_44_708
*776 FILLER_44_712
*777 FILLER_45_695
*778 FILLER_46_688
*779 FILLER_47_688
*780 FILLER_47_710
*781 FILLER_48_688
*782 FILLER_48_705
*783 FILLER_49_688
*784 FILLER_49_700
*785 FILLER_49_712
*786 FILLER_4_710
*787 FILLER_50_688
*788 FILLER_50_700
*789 FILLER_50_712
*790 FILLER_51_688
*791 FILLER_51_703
*792 FILLER_52_688
*793 FILLER_52_710
*794 FILLER_53_688
*795 FILLER_53_694
*796 FILLER_54_688
*797 FILLER_54_710
*798 FILLER_55_708
*799 FILLER_55_712
*800 FILLER_56_708
*801 FILLER_56_712
*802 FILLER_57_695
*803 FILLER_58_688
*804 FILLER_58_699
*805 FILLER_58_711
*806 FILLER_59_688
*807 FILLER_59_710
*808 FILLER_5_706
*809 FILLER_5_712
*810 FILLER_60_688
*811 FILLER_60_703
*812 FILLER_60_712
*813 FILLER_61_688
*814 FILLER_61_700
*815 FILLER_61_704
*816 FILLER_62_708
*817 FILLER_62_712
*818 FILLER_63_708
*819 FILLER_63_712
*820 FILLER_64_688
*821 FILLER_64_694
*822 FILLER_65_708
*823 FILLER_65_712
*824 FILLER_66_706
*825 FILLER_66_712
*826 FILLER_67_108
*827 FILLER_67_113
*828 FILLER_67_121
*829 FILLER_67_135
*830 FILLER_67_139
*831 FILLER_67_141
*832 FILLER_67_149
*833 FILLER_67_15
*834 FILLER_67_169
*835 FILLER_67_175
*836 FILLER_67_197
*837 FILLER_67_209
*838 FILLER_67_221
*839 FILLER_67_225
*840 FILLER_67_235
*841 FILLER_67_247
*842 FILLER_67_251
*843 FILLER_67_253
*844 FILLER_67_265
*845 FILLER_67_27
*846 FILLER_67_275
*847 FILLER_67_279
*848 FILLER_67_29
*849 FILLER_67_298
*850 FILLER_67_3
*851 FILLER_67_306
*852 FILLER_67_309
*853 FILLER_67_317
*854 FILLER_67_326
*855 FILLER_67_334
*856 FILLER_67_337
*857 FILLER_67_358
*858 FILLER_67_365
*859 FILLER_67_371
*860 FILLER_67_41
*861 FILLER_67_413
*862 FILLER_67_419
*863 FILLER_67_421
*864 FILLER_67_427
*865 FILLER_67_449
*866 FILLER_67_461
*867 FILLER_67_473
*868 FILLER_67_495
*869 FILLER_67_503
*870 FILLER_67_523
*871 FILLER_67_53
*872 FILLER_67_531
*873 FILLER_67_533
*874 FILLER_67_554
*875 FILLER_67_57
*876 FILLER_67_570
*877 FILLER_67_584
*878 FILLER_67_589
*879 FILLER_67_595
*880 FILLER_67_603
*881 FILLER_67_615
*882 FILLER_67_617
*883 FILLER_67_642
*884 FILLER_67_654
*885 FILLER_67_666
*886 FILLER_67_69
*887 FILLER_67_693
*888 FILLER_67_699
*889 FILLER_67_701
*890 FILLER_67_81
*891 FILLER_68_132
*892 FILLER_68_141
*893 FILLER_68_15
*894 FILLER_68_206
*895 FILLER_68_237
*896 FILLER_68_249
*897 FILLER_68_262
*898 FILLER_68_266
*899 FILLER_68_27
*900 FILLER_68_29
*901 FILLER_68_296
*902 FILLER_68_3
*903 FILLER_68_329
*904 FILLER_68_341
*905 FILLER_68_374
*906 FILLER_68_380
*907 FILLER_68_41
*908 FILLER_68_410
*909 FILLER_68_439
*910 FILLER_68_469
*911 FILLER_68_475
*912 FILLER_68_498
*913 FILLER_68_53
*914 FILLER_68_533
*915 FILLER_68_537
*916 FILLER_68_558
*917 FILLER_68_564
*918 FILLER_68_589
*919 FILLER_68_604
*920 FILLER_68_608
*921 FILLER_68_641
*922 FILLER_68_65
*923 FILLER_68_654
*924 FILLER_68_666
*925 FILLER_68_678
*926 FILLER_68_682
*927 FILLER_68_691
*928 FILLER_68_699
*929 FILLER_68_701
*930 FILLER_68_77
*931 FILLER_68_83
*932 FILLER_68_85
*933 FILLER_69_100
*934 FILLER_69_122
*935 FILLER_69_130
*936 FILLER_69_15
*937 FILLER_69_169
*938 FILLER_69_199
*939 FILLER_69_203
*940 FILLER_69_240
*941 FILLER_69_244
*942 FILLER_69_254
*943 FILLER_69_27
*944 FILLER_69_275
*945 FILLER_69_279
*946 FILLER_69_281
*947 FILLER_69_3
*948 FILLER_69_313
*949 FILLER_69_363
*950 FILLER_69_367
*951 FILLER_69_388
*952 FILLER_69_39
*953 FILLER_69_449
*954 FILLER_69_492
*955 FILLER_69_51
*956 FILLER_69_525
*957 FILLER_69_55
*958 FILLER_69_553
*959 FILLER_69_559
*960 FILLER_69_57
*961 FILLER_69_590
*962 FILLER_69_617
*963 FILLER_69_657
*964 FILLER_69_669
*965 FILLER_69_673
*966 FILLER_69_685
*967 FILLER_69_69
*968 FILLER_69_697
*969 FILLER_69_709
*970 FILLER_6_710
*971 FILLER_70_130
*972 FILLER_70_15
*973 FILLER_70_162
*974 FILLER_70_174
*975 FILLER_70_195
*976 FILLER_70_215
*977 FILLER_70_226
*978 FILLER_70_27
*979 FILLER_70_281
*980 FILLER_70_29
*981 FILLER_70_293
*982 FILLER_70_3
*983 FILLER_70_303
*984 FILLER_70_307
*985 FILLER_70_318
*986 FILLER_70_331
*987 FILLER_70_344
*988 FILLER_70_362
*989 FILLER_70_373
*990 FILLER_70_397
*991 FILLER_70_41
*992 FILLER_70_419
*993 FILLER_70_429
*994 FILLER_70_462
*995 FILLER_70_474
*996 FILLER_70_486
*997 FILLER_70_495
*998 FILLER_70_507
*999 FILLER_70_511
*1000 FILLER_70_529
*1001 FILLER_70_53
*1002 FILLER_70_542
*1003 FILLER_70_546
*1004 FILLER_70_556
*1005 FILLER_70_562
*1006 FILLER_70_581
*1007 FILLER_70_587
*1008 FILLER_70_589
*1009 FILLER_70_595
*1010 FILLER_70_614
*1011 FILLER_70_640
*1012 FILLER_70_645
*1013 FILLER_70_649
*1014 FILLER_70_65
*1015 FILLER_70_658
*1016 FILLER_70_670
*1017 FILLER_70_682
*1018 FILLER_70_694
*1019 FILLER_70_701
*1020 FILLER_70_77
*1021 FILLER_70_83
*1022 FILLER_70_85
*1023 FILLER_71_111
*1024 FILLER_71_122
*1025 FILLER_71_15
*1026 FILLER_71_154
*1027 FILLER_71_198
*1028 FILLER_71_221
*1029 FILLER_71_242
*1030 FILLER_71_260
*1031 FILLER_71_266
*1032 FILLER_71_27
*1033 FILLER_71_276
*1034 FILLER_71_3
*1035 FILLER_71_309
*1036 FILLER_71_331
*1037 FILLER_71_335
*1038 FILLER_71_346
*1039 FILLER_71_359
*1040 FILLER_71_371
*1041 FILLER_71_375
*1042 FILLER_71_385
*1043 FILLER_71_39
*1044 FILLER_71_391
*1045 FILLER_71_393
*1046 FILLER_71_423
*1047 FILLER_71_427
*1048 FILLER_71_478
*1049 FILLER_71_505
*1050 FILLER_71_509
*1051 FILLER_71_51
*1052 FILLER_71_55
*1053 FILLER_71_57
*1054 FILLER_71_612
*1055 FILLER_71_617
*1056 FILLER_71_632
*1057 FILLER_71_642
*1058 FILLER_71_654
*1059 FILLER_71_666
*1060 FILLER_71_673
*1061 FILLER_71_685
*1062 FILLER_71_69
*1063 FILLER_71_697
*1064 FILLER_71_709
*1065 FILLER_71_93
*1066 FILLER_72_120
*1067 FILLER_72_141
*1068 FILLER_72_15
*1069 FILLER_72_163
*1070 FILLER_72_192
*1071 FILLER_72_197
*1072 FILLER_72_201
*1073 FILLER_72_231
*1074 FILLER_72_242
*1075 FILLER_72_250
*1076 FILLER_72_27
*1077 FILLER_72_273
*1078 FILLER_72_279
*1079 FILLER_72_29
*1080 FILLER_72_3
*1081 FILLER_72_329
*1082 FILLER_72_353
*1083 FILLER_72_365
*1084 FILLER_72_41
*1085 FILLER_72_414
*1086 FILLER_72_421
*1087 FILLER_72_477
*1088 FILLER_72_509
*1089 FILLER_72_53
*1090 FILLER_72_541
*1091 FILLER_72_549
*1092 FILLER_72_584
*1093 FILLER_72_615
*1094 FILLER_72_627
*1095 FILLER_72_639
*1096 FILLER_72_643
*1097 FILLER_72_645
*1098 FILLER_72_65
*1099 FILLER_72_657
*1100 FILLER_72_669
*1101 FILLER_72_681
*1102 FILLER_72_693
*1103 FILLER_72_699
*1104 FILLER_72_701
*1105 FILLER_72_73
*1106 FILLER_72_85
*1107 FILLER_73_122
*1108 FILLER_73_149
*1109 FILLER_73_15
*1110 FILLER_73_169
*1111 FILLER_73_242
*1112 FILLER_73_27
*1113 FILLER_73_281
*1114 FILLER_73_287
*1115 FILLER_73_3
*1116 FILLER_73_306
*1117 FILLER_73_332
*1118 FILLER_73_374
*1119 FILLER_73_39
*1120 FILLER_73_393
*1121 FILLER_73_432
*1122 FILLER_73_447
*1123 FILLER_73_477
*1124 FILLER_73_502
*1125 FILLER_73_505
*1126 FILLER_73_509
*1127 FILLER_73_51
*1128 FILLER_73_519
*1129 FILLER_73_531
*1130 FILLER_73_544
*1131 FILLER_73_55
*1132 FILLER_73_559
*1133 FILLER_73_57
*1134 FILLER_73_581
*1135 FILLER_73_589
*1136 FILLER_73_614
*1137 FILLER_73_617
*1138 FILLER_73_629
*1139 FILLER_73_641
*1140 FILLER_73_653
*1141 FILLER_73_665
*1142 FILLER_73_671
*1143 FILLER_73_673
*1144 FILLER_73_685
*1145 FILLER_73_69
*1146 FILLER_73_697
*1147 FILLER_73_709
*1148 FILLER_73_77
*1149 FILLER_74_105
*1150 FILLER_74_109
*1151 FILLER_74_139
*1152 FILLER_74_15
*1153 FILLER_74_150
*1154 FILLER_74_156
*1155 FILLER_74_186
*1156 FILLER_74_197
*1157 FILLER_74_212
*1158 FILLER_74_245
*1159 FILLER_74_251
*1160 FILLER_74_262
*1161 FILLER_74_27
*1162 FILLER_74_29
*1163 FILLER_74_3
*1164 FILLER_74_317
*1165 FILLER_74_354
*1166 FILLER_74_362
*1167 FILLER_74_381
*1168 FILLER_74_41
*1169 FILLER_74_414
*1170 FILLER_74_452
*1171 FILLER_74_475
*1172 FILLER_74_486
*1173 FILLER_74_496
*1174 FILLER_74_525
*1175 FILLER_74_53
*1176 FILLER_74_531
*1177 FILLER_74_580
*1178 FILLER_74_589
*1179 FILLER_74_622
*1180 FILLER_74_634
*1181 FILLER_74_642
*1182 FILLER_74_645
*1183 FILLER_74_65
*1184 FILLER_74_657
*1185 FILLER_74_669
*1186 FILLER_74_681
*1187 FILLER_74_693
*1188 FILLER_74_699
*1189 FILLER_74_701
*1190 FILLER_74_73
*1191 FILLER_75_113
*1192 FILLER_75_121
*1193 FILLER_75_15
*1194 FILLER_75_150
*1195 FILLER_75_169
*1196 FILLER_75_181
*1197 FILLER_75_185
*1198 FILLER_75_197
*1199 FILLER_75_203
*1200 FILLER_75_242
*1201 FILLER_75_264
*1202 FILLER_75_27
*1203 FILLER_75_275
*1204 FILLER_75_3
*1205 FILLER_75_323
*1206 FILLER_75_335
*1207 FILLER_75_351
*1208 FILLER_75_361
*1209 FILLER_75_373
*1210 FILLER_75_381
*1211 FILLER_75_39
*1212 FILLER_75_446
*1213 FILLER_75_449
*1214 FILLER_75_489
*1215 FILLER_75_499
*1216 FILLER_75_503
*1217 FILLER_75_505
*1218 FILLER_75_51
*1219 FILLER_75_526
*1220 FILLER_75_530
*1221 FILLER_75_55
*1222 FILLER_75_57
*1223 FILLER_75_589
*1224 FILLER_75_602
*1225 FILLER_75_612
*1226 FILLER_75_617
*1227 FILLER_75_629
*1228 FILLER_75_641
*1229 FILLER_75_653
*1230 FILLER_75_665
*1231 FILLER_75_671
*1232 FILLER_75_673
*1233 FILLER_75_685
*1234 FILLER_75_69
*1235 FILLER_75_697
*1236 FILLER_75_709
*1237 FILLER_75_99
*1238 FILLER_76_113
*1239 FILLER_76_125
*1240 FILLER_76_137
*1241 FILLER_76_15
*1242 FILLER_76_150
*1243 FILLER_76_182
*1244 FILLER_76_195
*1245 FILLER_76_205
*1246 FILLER_76_231
*1247 FILLER_76_236
*1248 FILLER_76_27
*1249 FILLER_76_29
*1250 FILLER_76_3
*1251 FILLER_76_317
*1252 FILLER_76_326
*1253 FILLER_76_334
*1254 FILLER_76_374
*1255 FILLER_76_382
*1256 FILLER_76_41
*1257 FILLER_76_415
*1258 FILLER_76_441
*1259 FILLER_76_447
*1260 FILLER_76_457
*1261 FILLER_76_475
*1262 FILLER_76_497
*1263 FILLER_76_519
*1264 FILLER_76_528
*1265 FILLER_76_53
*1266 FILLER_76_585
*1267 FILLER_76_589
*1268 FILLER_76_601
*1269 FILLER_76_608
*1270 FILLER_76_620
*1271 FILLER_76_632
*1272 FILLER_76_645
*1273 FILLER_76_65
*1274 FILLER_76_657
*1275 FILLER_76_669
*1276 FILLER_76_681
*1277 FILLER_76_693
*1278 FILLER_76_699
*1279 FILLER_76_701
*1280 FILLER_76_77
*1281 FILLER_76_83
*1282 FILLER_76_85
*1283 FILLER_76_93
*1284 FILLER_77_105
*1285 FILLER_77_111
*1286 FILLER_77_113
*1287 FILLER_77_119
*1288 FILLER_77_129
*1289 FILLER_77_15
*1290 FILLER_77_169
*1291 FILLER_77_183
*1292 FILLER_77_205
*1293 FILLER_77_221
*1294 FILLER_77_225
*1295 FILLER_77_27
*1296 FILLER_77_281
*1297 FILLER_77_3
*1298 FILLER_77_315
*1299 FILLER_77_327
*1300 FILLER_77_335
*1301 FILLER_77_337
*1302 FILLER_77_361
*1303 FILLER_77_372
*1304 FILLER_77_39
*1305 FILLER_77_428
*1306 FILLER_77_478
*1307 FILLER_77_501
*1308 FILLER_77_51
*1309 FILLER_77_522
*1310 FILLER_77_534
*1311 FILLER_77_55
*1312 FILLER_77_57
*1313 FILLER_77_585
*1314 FILLER_77_597
*1315 FILLER_77_609
*1316 FILLER_77_615
*1317 FILLER_77_617
*1318 FILLER_77_629
*1319 FILLER_77_641
*1320 FILLER_77_653
*1321 FILLER_77_665
*1322 FILLER_77_671
*1323 FILLER_77_673
*1324 FILLER_77_685
*1325 FILLER_77_69
*1326 FILLER_77_697
*1327 FILLER_77_709
*1328 FILLER_77_81
*1329 FILLER_77_93
*1330 FILLER_78_134
*1331 FILLER_78_15
*1332 FILLER_78_186
*1333 FILLER_78_217
*1334 FILLER_78_228
*1335 FILLER_78_249
*1336 FILLER_78_27
*1337 FILLER_78_273
*1338 FILLER_78_29
*1339 FILLER_78_298
*1340 FILLER_78_3
*1341 FILLER_78_324
*1342 FILLER_78_336
*1343 FILLER_78_359
*1344 FILLER_78_363
*1345 FILLER_78_41
*1346 FILLER_78_444
*1347 FILLER_78_525
*1348 FILLER_78_53
*1349 FILLER_78_531
*1350 FILLER_78_533
*1351 FILLER_78_545
*1352 FILLER_78_551
*1353 FILLER_78_564
*1354 FILLER_78_579
*1355 FILLER_78_587
*1356 FILLER_78_589
*1357 FILLER_78_601
*1358 FILLER_78_613
*1359 FILLER_78_625
*1360 FILLER_78_637
*1361 FILLER_78_643
*1362 FILLER_78_645
*1363 FILLER_78_65
*1364 FILLER_78_657
*1365 FILLER_78_669
*1366 FILLER_78_681
*1367 FILLER_78_693
*1368 FILLER_78_699
*1369 FILLER_78_701
*1370 FILLER_78_77
*1371 FILLER_78_83
*1372 FILLER_78_85
*1373 FILLER_79_105
*1374 FILLER_79_111
*1375 FILLER_79_113
*1376 FILLER_79_139
*1377 FILLER_79_15
*1378 FILLER_79_150
*1379 FILLER_79_160
*1380 FILLER_79_172
*1381 FILLER_79_253
*1382 FILLER_79_27
*1383 FILLER_79_275
*1384 FILLER_79_3
*1385 FILLER_79_333
*1386 FILLER_79_39
*1387 FILLER_79_421
*1388 FILLER_79_483
*1389 FILLER_79_51
*1390 FILLER_79_514
*1391 FILLER_79_526
*1392 FILLER_79_538
*1393 FILLER_79_55
*1394 FILLER_79_550
*1395 FILLER_79_558
*1396 FILLER_79_561
*1397 FILLER_79_57
*1398 FILLER_79_576
*1399 FILLER_79_588
*1400 FILLER_79_600
*1401 FILLER_79_612
*1402 FILLER_79_617
*1403 FILLER_79_629
*1404 FILLER_79_641
*1405 FILLER_79_653
*1406 FILLER_79_665
*1407 FILLER_79_671
*1408 FILLER_79_673
*1409 FILLER_79_685
*1410 FILLER_79_69
*1411 FILLER_79_697
*1412 FILLER_79_709
*1413 FILLER_79_81
*1414 FILLER_79_93
*1415 FILLER_7_688
*1416 FILLER_7_710
*1417 FILLER_80_100
*1418 FILLER_80_106
*1419 FILLER_80_113
*1420 FILLER_80_118
*1421 FILLER_80_124
*1422 FILLER_80_130
*1423 FILLER_80_15
*1424 FILLER_80_237
*1425 FILLER_80_27
*1426 FILLER_80_270
*1427 FILLER_80_281
*1428 FILLER_80_29
*1429 FILLER_80_3
*1430 FILLER_80_334
*1431 FILLER_80_341
*1432 FILLER_80_363
*1433 FILLER_80_381
*1434 FILLER_80_41
*1435 FILLER_80_419
*1436 FILLER_80_447
*1437 FILLER_80_474
*1438 FILLER_80_489
*1439 FILLER_80_503
*1440 FILLER_80_522
*1441 FILLER_80_53
*1442 FILLER_80_530
*1443 FILLER_80_533
*1444 FILLER_80_545
*1445 FILLER_80_557
*1446 FILLER_80_561
*1447 FILLER_80_57
*1448 FILLER_80_573
*1449 FILLER_80_585
*1450 FILLER_80_589
*1451 FILLER_80_601
*1452 FILLER_80_613
*1453 FILLER_80_617
*1454 FILLER_80_629
*1455 FILLER_80_64
*1456 FILLER_80_641
*1457 FILLER_80_645
*1458 FILLER_80_657
*1459 FILLER_80_669
*1460 FILLER_80_673
*1461 FILLER_80_685
*1462 FILLER_80_697
*1463 FILLER_80_70