*SPEF "ieee 1481-1999"
*DESIGN "tt_um_openram_top"
*DATE "20:49:23 Tuesday September 02, 2025"
*VENDOR "The OpenROAD Project"
*PROGRAM "OpenROAD"
*VERSION "edf00dff99f6c40d67a30c0e22a8191c5d2ed9d6"
*DESIGN_FLOW "NAME_SCOPE LOCAL" "PIN_CAP NONE"
*DIVIDER /
*DELIMITER :
*BUS_DELIMITER []
*T_UNIT 1 NS
*C_UNIT 1 PF
*R_UNIT 1 OHM
*L_UNIT 1 HENRY

*NAME_MAP
*3 clk
*4 ena
*5 rst_n
*6 ui_in[0]
*7 ui_in[1]
*8 ui_in[2]
*9 ui_in[3]
*10 ui_in[4]
*11 ui_in[5]
*12 ui_in[6]
*13 ui_in[7]
*14 uio_in[0]
*15 uio_in[1]
*16 uio_in[2]
*17 uio_in[3]
*18 uio_in[4]
*19 uio_in[5]
*20 uio_in[6]
*21 uio_in[7]
*22 net56
*23 net57
*24 net58
*25 net59
*26 net60
*27 net61
*28 net62
*29 net63
*30 net64
*31 net65
*32 net66
*33 net67
*34 net68
*35 net69
*36 net70
*37 net71
*38 uo_out[0]
*39 uo_out[1]
*40 net72
*41 net73
*42 net74
*43 net75
*44 net76
*45 net77
*48 _000_
*49 _001_
*50 _002_
*51 _003_
*52 _004_
*53 _005_
*54 _006_
*55 _007_
*56 _008_
*57 _009_
*58 _010_
*59 _011_
*60 _012_
*61 _013_
*62 _014_
*63 _015_
*64 _016_
*65 _017_
*66 _018_
*67 _019_
*68 _020_
*69 _021_
*70 _022_
*71 _023_
*72 _024_
*73 _025_
*74 _026_
*75 _027_
*76 _028_
*77 _029_
*78 _030_
*79 _031_
*80 _032_
*81 _033_
*82 _034_
*83 _035_
*84 _036_
*85 _037_
*86 _038_
*87 _039_
*88 _040_
*89 _041_
*90 _042_
*91 _043_
*92 _044_
*93 _045_
*94 _046_
*95 _047_
*96 _048_
*97 _049_
*98 _050_
*99 _051_
*100 _052_
*101 _053_
*102 _054_
*103 _055_
*104 _056_
*105 _057_
*106 _058_
*107 _059_
*108 _060_
*109 _061_
*110 _062_
*111 _063_
*112 _064_
*113 _065_
*114 _066_
*115 _067_
*116 _068_
*117 _069_
*118 _070_
*119 _071_
*120 _072_
*121 _073_
*122 _074_
*123 _075_
*124 _076_
*125 _077_
*126 _078_
*127 _079_
*128 _080_
*129 _081_
*130 _082_
*131 _083_
*132 _084_
*133 _085_
*134 _086_
*135 _087_
*136 _088_
*137 _089_
*138 _090_
*139 _091_
*140 _092_
*141 _093_
*142 _094_
*143 _095_
*144 _096_
*145 _097_
*146 _098_
*147 _099_
*148 _100_
*149 _101_
*150 _102_
*151 _103_
*152 _104_
*153 _105_
*154 _106_
*155 _107_
*156 _108_
*157 _109_
*158 _110_
*159 _111_
*160 _112_
*161 _113_
*162 _114_
*163 _115_
*164 _116_
*165 _117_
*166 _118_
*167 _119_
*168 _120_
*169 _121_
*170 _122_
*171 _123_
*172 _124_
*173 _125_
*174 _126_
*175 _127_
*176 _128_
*177 _129_
*178 _130_
*179 _131_
*180 _132_
*181 _133_
*182 _134_
*183 _135_
*184 _136_
*185 _137_
*186 _138_
*187 _139_
*188 _140_
*189 _141_
*190 _142_
*191 _143_
*192 _144_
*193 _145_
*194 _146_
*195 _147_
*196 _148_
*197 _149_
*198 _150_
*199 _151_
*200 _152_
*201 _153_
*202 _154_
*203 _155_
*204 _156_
*205 _157_
*206 _158_
*207 _159_
*208 _160_
*209 _161_
*210 _162_
*211 _163_
*212 _164_
*213 _165_
*214 _166_
*215 _167_
*216 _168_
*217 _169_
*218 _170_
*219 _171_
*220 _172_
*221 _173_
*222 _174_
*223 _175_
*224 _176_
*225 _177_
*226 _178_
*227 _179_
*228 _180_
*229 _181_
*230 _182_
*231 _183_
*232 _184_
*233 _185_
*234 _186_
*235 _187_
*236 _188_
*237 _189_
*238 _190_
*239 _191_
*240 _192_
*241 _193_
*242 _194_
*243 _195_
*244 _196_
*245 _197_
*246 _198_
*247 _199_
*248 _200_
*249 _201_
*250 _202_
*251 _203_
*252 _204_
*253 _205_
*254 _206_
*255 _207_
*256 _208_
*257 _209_
*258 _210_
*259 _211_
*260 _212_
*261 _213_
*262 _214_
*263 _215_
*264 _216_
*265 _217_
*266 _218_
*267 _219_
*268 _220_
*269 _221_
*270 _222_
*271 _223_
*272 _224_
*273 _225_
*274 _226_
*275 _227_
*276 _228_
*277 _229_
*278 _230_
*279 _231_
*280 _232_
*281 _233_
*282 _234_
*283 _235_
*284 _236_
*285 _237_
*286 _238_
*287 _239_
*288 _240_
*289 _241_
*290 _242_
*291 _243_
*292 _244_
*293 _245_
*294 _246_
*295 _247_
*296 _248_
*297 _249_
*298 clknet_0_ui_in[3]
*299 clknet_0_ui_in[4]
*300 clknet_3_0__leaf_ui_in[3]
*301 clknet_3_0__leaf_ui_in[4]
*302 clknet_3_1__leaf_ui_in[3]
*303 clknet_3_1__leaf_ui_in[4]
*304 clknet_3_2__leaf_ui_in[3]
*305 clknet_3_2__leaf_ui_in[4]
*306 clknet_3_3__leaf_ui_in[3]
*307 clknet_3_3__leaf_ui_in[4]
*308 clknet_3_4__leaf_ui_in[3]
*309 clknet_3_4__leaf_ui_in[4]
*310 clknet_3_5__leaf_ui_in[3]
*311 clknet_3_5__leaf_ui_in[4]
*312 clknet_3_6__leaf_ui_in[3]
*313 clknet_3_6__leaf_ui_in[4]
*314 clknet_3_7__leaf_ui_in[3]
*315 clknet_3_7__leaf_ui_in[4]
*316 dout\[0\]
*317 dout\[10\]
*318 dout\[11\]
*319 dout\[12\]
*320 dout\[13\]
*321 dout\[14\]
*322 dout\[15\]
*323 dout\[16\]
*324 dout\[17\]
*325 dout\[18\]
*326 dout\[19\]
*327 dout\[1\]
*328 dout\[20\]
*329 dout\[21\]
*330 dout\[22\]
*331 dout\[23\]
*332 dout\[24\]
*333 dout\[25\]
*334 dout\[26\]
*335 dout\[27\]
*336 dout\[28\]
*337 dout\[29\]
*338 dout\[2\]
*339 dout\[30\]
*340 dout\[31\]
*341 dout\[32\]
*342 dout\[3\]
*343 dout\[4\]
*344 dout\[5\]
*345 dout\[6\]
*346 dout\[7\]
*347 dout\[8\]
*348 dout\[9\]
*349 net1
*350 net10
*351 net100
*352 net101
*353 net102
*354 net103
*355 net104
*356 net105
*357 net106
*358 net107
*359 net108
*360 net109
*361 net11
*362 net110
*363 net111
*364 net112
*365 net113
*366 net114
*367 net115
*368 net116
*369 net117
*370 net118
*371 net119
*372 net12
*373 net120
*374 net121
*375 net122
*376 net123
*377 net124
*378 net125
*379 net126
*380 net127
*381 net128
*382 net129
*383 net13
*384 net130
*385 net131
*386 net132
*387 net133
*388 net134
*389 net135
*390 net136
*391 net137
*392 net138
*393 net139
*394 net14
*395 net140
*396 net141
*397 net142
*398 net143
*399 net144
*400 net145
*401 net146
*402 net147
*403 net148
*404 net149
*405 net15
*406 net150
*407 net151
*408 net152
*409 net153
*410 net154
*411 net155
*412 net156
*413 net157
*414 net158
*415 net159
*416 net16
*417 net160
*418 net161
*419 net162
*420 net163
*421 net164
*422 net165
*423 net166
*424 net167
*425 net168
*426 net169
*427 net17
*428 net170
*429 net171
*430 net172
*431 net173
*432 net174
*433 net175
*434 net176
*435 net177
*436 net178
*437 net179
*438 net18
*439 net180
*440 net181
*441 net182
*442 net183
*443 net184
*444 net185
*445 net186
*446 net187
*447 net188
*448 net189
*449 net19
*450 net190
*451 net2
*452 net20
*453 net21
*454 net22
*455 net23
*456 net24
*457 net25
*458 net26
*459 net27
*460 net28
*461 net29
*462 net3
*463 net30
*464 net31
*465 net32
*466 net33
*467 net34
*468 net35
*469 net36
*470 net37
*471 net38
*472 net39
*473 net4
*474 net40
*475 net41
*476 net42
*477 net43
*478 net44
*479 net45
*480 net46
*481 net47
*482 net48
*483 net49
*484 net5
*485 net50
*486 net51
*487 net52
*488 net53
*489 net54
*490 net55
*491 net6
*492 net7
*493 net78
*494 net79
*495 net8
*496 net80
*497 net81
*498 net82
*499 net83
*500 net84
*501 net85
*502 net86
*503 net87
*504 net88
*505 net89
*506 net9
*507 net90
*508 net91
*509 net92
*510 net93
*511 net94
*512 net95
*513 net96
*514 net97
*515 net98
*516 net99
*517 scan_chain\.scan_cells\[0\]\.scan_cell\.data_out
*518 scan_chain\.scan_cells\[0\]\.scan_cell\.primary_ff
*519 scan_chain\.scan_cells\[10\]\.scan_cell\.data_out
*520 scan_chain\.scan_cells\[10\]\.scan_cell\.primary_ff
*521 scan_chain\.scan_cells\[10\]\.scan_cell\.scan_in
*522 scan_chain\.scan_cells\[11\]\.scan_cell\.data_out
*523 scan_chain\.scan_cells\[11\]\.scan_cell\.primary_ff
*524 scan_chain\.scan_cells\[12\]\.scan_cell\.data_out
*525 scan_chain\.scan_cells\[12\]\.scan_cell\.primary_ff
*526 scan_chain\.scan_cells\[13\]\.scan_cell\.data_out
*527 scan_chain\.scan_cells\[13\]\.scan_cell\.primary_ff
*528 scan_chain\.scan_cells\[14\]\.scan_cell\.data_out
*529 scan_chain\.scan_cells\[14\]\.scan_cell\.primary_ff
*530 scan_chain\.scan_cells\[15\]\.scan_cell\.data_out
*531 scan_chain\.scan_cells\[15\]\.scan_cell\.primary_ff
*532 scan_chain\.scan_cells\[16\]\.scan_cell\.data_out
*533 scan_chain\.scan_cells\[16\]\.scan_cell\.primary_ff
*534 scan_chain\.scan_cells\[17\]\.scan_cell\.data_out
*535 scan_chain\.scan_cells\[17\]\.scan_cell\.primary_ff
*536 scan_chain\.scan_cells\[18\]\.scan_cell\.data_out
*537 scan_chain\.scan_cells\[18\]\.scan_cell\.primary_ff
*538 scan_chain\.scan_cells\[19\]\.scan_cell\.data_out
*539 scan_chain\.scan_cells\[19\]\.scan_cell\.primary_ff
*540 scan_chain\.scan_cells\[1\]\.scan_cell\.data_out
*541 scan_chain\.scan_cells\[1\]\.scan_cell\.primary_ff
*542 scan_chain\.scan_cells\[20\]\.scan_cell\.data_out
*543 scan_chain\.scan_cells\[20\]\.scan_cell\.primary_ff
*544 scan_chain\.scan_cells\[21\]\.scan_cell\.data_out
*545 scan_chain\.scan_cells\[21\]\.scan_cell\.primary_ff
*546 scan_chain\.scan_cells\[22\]\.scan_cell\.data_out
*547 scan_chain\.scan_cells\[22\]\.scan_cell\.primary_ff
*548 scan_chain\.scan_cells\[23\]\.scan_cell\.data_out
*549 scan_chain\.scan_cells\[23\]\.scan_cell\.primary_ff
*550 scan_chain\.scan_cells\[24\]\.scan_cell\.data_out
*551 scan_chain\.scan_cells\[24\]\.scan_cell\.primary_ff
*552 scan_chain\.scan_cells\[25\]\.scan_cell\.data_out
*553 scan_chain\.scan_cells\[25\]\.scan_cell\.primary_ff
*554 scan_chain\.scan_cells\[26\]\.scan_cell\.data_out
*555 scan_chain\.scan_cells\[26\]\.scan_cell\.primary_ff
*556 scan_chain\.scan_cells\[27\]\.scan_cell\.data_out
*557 scan_chain\.scan_cells\[27\]\.scan_cell\.primary_ff
*558 scan_chain\.scan_cells\[28\]\.scan_cell\.data_out
*559 scan_chain\.scan_cells\[28\]\.scan_cell\.primary_ff
*560 scan_chain\.scan_cells\[29\]\.scan_cell\.data_out
*561 scan_chain\.scan_cells\[29\]\.scan_cell\.primary_ff
*562 scan_chain\.scan_cells\[2\]\.scan_cell\.data_out
*563 scan_chain\.scan_cells\[2\]\.scan_cell\.primary_ff
*564 scan_chain\.scan_cells\[30\]\.scan_cell\.data_out
*565 scan_chain\.scan_cells\[30\]\.scan_cell\.primary_ff
*566 scan_chain\.scan_cells\[31\]\.scan_cell\.data_out
*567 scan_chain\.scan_cells\[31\]\.scan_cell\.primary_ff
*568 scan_chain\.scan_cells\[32\]\.scan_cell\.data_out
*569 scan_chain\.scan_cells\[32\]\.scan_cell\.primary_ff
*570 scan_chain\.scan_cells\[33\]\.scan_cell\.data_in
*571 scan_chain\.scan_cells\[33\]\.scan_cell\.primary_ff
*572 scan_chain\.scan_cells\[34\]\.scan_cell\.data_in
*573 scan_chain\.scan_cells\[34\]\.scan_cell\.primary_ff
*574 scan_chain\.scan_cells\[35\]\.scan_cell\.data_in
*575 scan_chain\.scan_cells\[35\]\.scan_cell\.primary_ff
*576 scan_chain\.scan_cells\[36\]\.scan_cell\.data_in
*577 scan_chain\.scan_cells\[36\]\.scan_cell\.primary_ff
*578 scan_chain\.scan_cells\[37\]\.scan_cell\.data_in
*579 scan_chain\.scan_cells\[37\]\.scan_cell\.primary_ff
*580 scan_chain\.scan_cells\[38\]\.scan_cell\.data_in
*581 scan_chain\.scan_cells\[38\]\.scan_cell\.primary_ff
*582 scan_chain\.scan_cells\[39\]\.scan_cell\.data_in
*583 scan_chain\.scan_cells\[39\]\.scan_cell\.primary_ff
*584 scan_chain\.scan_cells\[3\]\.scan_cell\.data_out
*585 scan_chain\.scan_cells\[3\]\.scan_cell\.primary_ff
*586 scan_chain\.scan_cells\[40\]\.scan_cell\.data_in
*587 scan_chain\.scan_cells\[40\]\.scan_cell\.primary_ff
*588 scan_chain\.scan_cells\[41\]\.scan_cell\.data_in
*589 scan_chain\.scan_cells\[41\]\.scan_cell\.primary_ff
*590 scan_chain\.scan_cells\[42\]\.scan_cell\.data_in
*591 scan_chain\.scan_cells\[42\]\.scan_cell\.primary_ff
*592 scan_chain\.scan_cells\[43\]\.scan_cell\.data_in
*593 scan_chain\.scan_cells\[43\]\.scan_cell\.primary_ff
*594 scan_chain\.scan_cells\[44\]\.scan_cell\.data_in
*595 scan_chain\.scan_cells\[44\]\.scan_cell\.primary_ff
*596 scan_chain\.scan_cells\[45\]\.scan_cell\.data_in
*597 scan_chain\.scan_cells\[45\]\.scan_cell\.primary_ff
*598 scan_chain\.scan_cells\[46\]\.scan_cell\.data_in
*599 scan_chain\.scan_cells\[46\]\.scan_cell\.primary_ff
*600 scan_chain\.scan_cells\[47\]\.scan_cell\.data_in
*601 scan_chain\.scan_cells\[47\]\.scan_cell\.primary_ff
*602 scan_chain\.scan_cells\[48\]\.scan_cell\.data_in
*603 scan_chain\.scan_cells\[48\]\.scan_cell\.primary_ff
*604 scan_chain\.scan_cells\[49\]\.scan_cell\.data_in
*605 scan_chain\.scan_cells\[49\]\.scan_cell\.primary_ff
*606 scan_chain\.scan_cells\[4\]\.scan_cell\.data_out
*607 scan_chain\.scan_cells\[4\]\.scan_cell\.primary_ff
*608 scan_chain\.scan_cells\[50\]\.scan_cell\.data_in
*609 scan_chain\.scan_cells\[50\]\.scan_cell\.primary_ff
*610 scan_chain\.scan_cells\[51\]\.scan_cell\.data_in
*611 scan_chain\.scan_cells\[51\]\.scan_cell\.primary_ff
*612 scan_chain\.scan_cells\[52\]\.scan_cell\.data_in
*613 scan_chain\.scan_cells\[52\]\.scan_cell\.primary_ff
*614 scan_chain\.scan_cells\[53\]\.scan_cell\.data_in
*615 scan_chain\.scan_cells\[53\]\.scan_cell\.primary_ff
*616 scan_chain\.scan_cells\[54\]\.scan_cell\.data_in
*617 scan_chain\.scan_cells\[54\]\.scan_cell\.primary_ff
*618 scan_chain\.scan_cells\[55\]\.scan_cell\.data_in
*619 scan_chain\.scan_cells\[55\]\.scan_cell\.primary_ff
*620 scan_chain\.scan_cells\[56\]\.scan_cell\.data_in
*621 scan_chain\.scan_cells\[56\]\.scan_cell\.primary_ff
*622 scan_chain\.scan_cells\[57\]\.scan_cell\.data_in
*623 scan_chain\.scan_cells\[57\]\.scan_cell\.primary_ff
*624 scan_chain\.scan_cells\[58\]\.scan_cell\.data_in
*625 scan_chain\.scan_cells\[58\]\.scan_cell\.primary_ff
*626 scan_chain\.scan_cells\[59\]\.scan_cell\.data_in
*627 scan_chain\.scan_cells\[59\]\.scan_cell\.primary_ff
*628 scan_chain\.scan_cells\[5\]\.scan_cell\.data_out
*629 scan_chain\.scan_cells\[5\]\.scan_cell\.primary_ff
*630 scan_chain\.scan_cells\[60\]\.scan_cell\.data_in
*631 scan_chain\.scan_cells\[60\]\.scan_cell\.primary_ff
*632 scan_chain\.scan_cells\[61\]\.scan_cell\.data_in
*633 scan_chain\.scan_cells\[61\]\.scan_cell\.primary_ff
*634 scan_chain\.scan_cells\[62\]\.scan_cell\.data_in
*635 scan_chain\.scan_cells\[62\]\.scan_cell\.primary_ff
*636 scan_chain\.scan_cells\[63\]\.scan_cell\.data_in
*637 scan_chain\.scan_cells\[63\]\.scan_cell\.primary_ff
*638 scan_chain\.scan_cells\[64\]\.scan_cell\.data_in
*639 scan_chain\.scan_cells\[64\]\.scan_cell\.primary_ff
*640 scan_chain\.scan_cells\[65\]\.scan_cell\.data_in
*641 scan_chain\.scan_cells\[65\]\.scan_cell\.primary_ff
*642 scan_chain\.scan_cells\[66\]\.scan_cell\.data_in
*643 scan_chain\.scan_cells\[66\]\.scan_cell\.primary_ff
*644 scan_chain\.scan_cells\[67\]\.scan_cell\.data_in
*645 scan_chain\.scan_cells\[67\]\.scan_cell\.primary_ff
*646 scan_chain\.scan_cells\[68\]\.scan_cell\.data_in
*647 scan_chain\.scan_cells\[68\]\.scan_cell\.primary_ff
*648 scan_chain\.scan_cells\[69\]\.scan_cell\.data_in
*649 scan_chain\.scan_cells\[69\]\.scan_cell\.primary_ff
*650 scan_chain\.scan_cells\[6\]\.scan_cell\.data_out
*651 scan_chain\.scan_cells\[6\]\.scan_cell\.primary_ff
*652 scan_chain\.scan_cells\[70\]\.scan_cell\.data_in
*653 scan_chain\.scan_cells\[70\]\.scan_cell\.primary_ff
*654 scan_chain\.scan_cells\[71\]\.scan_cell\.data_in
*655 scan_chain\.scan_cells\[71\]\.scan_cell\.primary_ff
*656 scan_chain\.scan_cells\[7\]\.scan_cell\.data_out
*657 scan_chain\.scan_cells\[7\]\.scan_cell\.primary_ff
*658 scan_chain\.scan_cells\[8\]\.scan_cell\.data_out
*659 scan_chain\.scan_cells\[8\]\.scan_cell\.primary_ff
*660 scan_chain\.scan_cells\[9\]\.scan_cell\.primary_ff
*661 ANTENNA_1
*662 ANTENNA_10
*663 ANTENNA_11
*664 ANTENNA_12
*665 ANTENNA_13
*666 ANTENNA_14
*667 ANTENNA_15
*668 ANTENNA_16
*669 ANTENNA_17
*670 ANTENNA_18
*671 ANTENNA_19
*672 ANTENNA_2
*673 ANTENNA_20
*674 ANTENNA_21
*675 ANTENNA_22
*676 ANTENNA_23
*677 ANTENNA_24
*678 ANTENNA_25
*679 ANTENNA_26
*680 ANTENNA_27
*681 ANTENNA_28
*682 ANTENNA_29
*683 ANTENNA_3
*684 ANTENNA_30
*685 ANTENNA_31
*686 ANTENNA_32
*687 ANTENNA_33
*688 ANTENNA_34
*689 ANTENNA_4
*690 ANTENNA_5
*691 ANTENNA_6
*692 ANTENNA_7
*693 ANTENNA_8
*694 ANTENNA_9
*695 FILLER_0_688
*696 FILLER_0_700
*697 FILLER_0_704
*698 FILLER_10_688
*699 FILLER_10_696
*700 FILLER_10_706
*701 FILLER_10_712
*702 FILLER_11_712
*703 FILLER_12_688
*704 FILLER_13_688
*705 FILLER_13_710
*706 FILLER_14_688
*707 FILLER_15_688
*708 FILLER_15_710
*709 FILLER_16_688
*710 FILLER_16_700
*711 FILLER_16_704
*712 FILLER_17_688
*713 FILLER_17_705
*714 FILLER_18_688
*715 FILLER_18_705
*716 FILLER_19_688
*717 FILLER_19_694
*718 FILLER_19_704
*719 FILLER_19_712
*720 FILLER_1_688
*721 FILLER_1_698
*722 FILLER_1_704
*723 FILLER_20_688
*724 FILLER_20_705
*725 FILLER_21_688
*726 FILLER_22_688
*727 FILLER_22_700
*728 FILLER_22_704
*729 FILLER_23_688
*730 FILLER_23_710
*731 FILLER_24_688
*732 FILLER_24_700
*733 FILLER_24_712
*734 FILLER_25_688
*735 FILLER_25_700
*736 FILLER_25_712
*737 FILLER_26_688
*738 FILLER_26_710
*739 FILLER_27_688
*740 FILLER_27_694
*741 FILLER_27_697
*742 FILLER_27_709
*743 FILLER_28_688
*744 FILLER_28_694
*745 FILLER_29_688
*746 FILLER_29_700
*747 FILLER_29_704
*748 FILLER_2_688
*749 FILLER_30_688
*750 FILLER_30_694
*751 FILLER_30_697
*752 FILLER_30_709
*753 FILLER_31_688
*754 FILLER_31_694
*755 FILLER_32_688
*756 FILLER_32_710
*757 FILLER_33_688
*758 FILLER_34_688
*759 FILLER_35_688
*760 FILLER_35_710
*761 FILLER_36_688
*762 FILLER_36_705
*763 FILLER_37_688
*764 FILLER_37_711
*765 FILLER_38_688
*766 FILLER_38_696
*767 FILLER_38_703
*768 FILLER_39_688
*769 FILLER_39_710
*770 FILLER_3_706
*771 FILLER_3_712
*772 FILLER_40_688
*773 FILLER_40_694
*774 FILLER_40_697
*775 FILLER_40_709
*776 FILLER_41_704
*777 FILLER_41_712
*778 FILLER_42_708
*779 FILLER_42_712
*780 FILLER_43_688
*781 FILLER_43_710
*782 FILLER_44_708
*783 FILLER_44_712
*784 FILLER_45_694
*785 FILLER_46_688
*786 FILLER_47_688
*787 FILLER_47_710
*788 FILLER_48_688
*789 FILLER_48_705
*790 FILLER_49_688
*791 FILLER_49_700
*792 FILLER_49_712
*793 FILLER_4_710
*794 FILLER_50_688
*795 FILLER_50_700
*796 FILLER_50_712
*797 FILLER_51_688
*798 FILLER_51_692
*799 FILLER_51_702
*800 FILLER_51_710
*801 FILLER_52_688
*802 FILLER_52_710
*803 FILLER_53_688
*804 FILLER_53_694
*805 FILLER_53_704
*806 FILLER_54_688
*807 FILLER_55_688
*808 FILLER_55_710
*809 FILLER_56_688
*810 FILLER_56_705
*811 FILLER_57_688
*812 FILLER_57_711
*813 FILLER_58_688
*814 FILLER_58_709
*815 FILLER_59_688
*816 FILLER_59_709
*817 FILLER_5_706
*818 FILLER_5_712
*819 FILLER_60_688
*820 FILLER_61_688
*821 FILLER_61_698
*822 FILLER_61_709
*823 FILLER_62_708
*824 FILLER_62_712
*825 FILLER_63_688
*826 FILLER_63_700
*827 FILLER_63_712
*828 FILLER_64_706
*829 FILLER_64_712
*830 FILLER_65_708
*831 FILLER_65_712
*832 FILLER_66_697
*833 FILLER_67_109
*834 FILLER_67_113
*835 FILLER_67_125
*836 FILLER_67_137
*837 FILLER_67_15
*838 FILLER_67_161
*839 FILLER_67_167
*840 FILLER_67_169
*841 FILLER_67_173
*842 FILLER_67_194
*843 FILLER_67_206
*844 FILLER_67_218
*845 FILLER_67_225
*846 FILLER_67_236
*847 FILLER_67_248
*848 FILLER_67_262
*849 FILLER_67_27
*850 FILLER_67_274
*851 FILLER_67_281
*852 FILLER_67_285
*853 FILLER_67_29
*854 FILLER_67_3
*855 FILLER_67_303
*856 FILLER_67_307
*857 FILLER_67_309
*858 FILLER_67_333
*859 FILLER_67_346
*860 FILLER_67_358
*861 FILLER_67_376
*862 FILLER_67_388
*863 FILLER_67_41
*864 FILLER_67_413
*865 FILLER_67_419
*866 FILLER_67_449
*867 FILLER_67_461
*868 FILLER_67_473
*869 FILLER_67_477
*870 FILLER_67_489
*871 FILLER_67_502
*872 FILLER_67_505
*873 FILLER_67_515
*874 FILLER_67_527
*875 FILLER_67_53
*876 FILLER_67_531
*877 FILLER_67_533
*878 FILLER_67_550
*879 FILLER_67_561
*880 FILLER_67_567
*881 FILLER_67_57
*882 FILLER_67_579
*883 FILLER_67_589
*884 FILLER_67_611
*885 FILLER_67_615
*886 FILLER_67_654
*887 FILLER_67_666
*888 FILLER_67_673
*889 FILLER_67_679
*890 FILLER_67_69
*891 FILLER_67_709
*892 FILLER_67_81
*893 FILLER_67_85
*894 FILLER_68_116
*895 FILLER_68_128
*896 FILLER_68_141
*897 FILLER_68_15
*898 FILLER_68_175
*899 FILLER_68_206
*900 FILLER_68_214
*901 FILLER_68_237
*902 FILLER_68_253
*903 FILLER_68_27
*904 FILLER_68_29
*905 FILLER_68_3
*906 FILLER_68_309
*907 FILLER_68_313
*908 FILLER_68_351
*909 FILLER_68_363
*910 FILLER_68_365
*911 FILLER_68_375
*912 FILLER_68_41
*913 FILLER_68_418
*914 FILLER_68_421
*915 FILLER_68_453
*916 FILLER_68_465
*917 FILLER_68_475
*918 FILLER_68_486
*919 FILLER_68_527
*920 FILLER_68_53
*921 FILLER_68_531
*922 FILLER_68_533
*923 FILLER_68_576
*924 FILLER_68_586
*925 FILLER_68_589
*926 FILLER_68_61
*927 FILLER_68_653
*928 FILLER_68_665
*929 FILLER_68_677
*930 FILLER_68_683
*931 FILLER_68_693
*932 FILLER_68_699
*933 FILLER_68_701
*934 FILLER_68_85
*935 FILLER_69_110
*936 FILLER_69_15
*937 FILLER_69_178
*938 FILLER_69_203
*939 FILLER_69_225
*940 FILLER_69_268
*941 FILLER_69_27
*942 FILLER_69_298
*943 FILLER_69_3
*944 FILLER_69_306
*945 FILLER_69_317
*946 FILLER_69_345
*947 FILLER_69_353
*948 FILLER_69_39
*949 FILLER_69_413
*950 FILLER_69_441
*951 FILLER_69_447
*952 FILLER_69_51
*953 FILLER_69_513
*954 FILLER_69_521
*955 FILLER_69_55
*956 FILLER_69_553
*957 FILLER_69_559
*958 FILLER_69_569
*959 FILLER_69_57
*960 FILLER_69_614
*961 FILLER_69_617
*962 FILLER_69_621
*963 FILLER_69_645
*964 FILLER_69_657
*965 FILLER_69_669
*966 FILLER_69_673
*967 FILLER_69_685
*968 FILLER_69_697
*969 FILLER_69_709
*970 FILLER_6_708
*971 FILLER_6_712
*972 FILLER_70_126
*973 FILLER_70_130
*974 FILLER_70_141
*975 FILLER_70_15
*976 FILLER_70_154
*977 FILLER_70_172
*978 FILLER_70_240
*979 FILLER_70_27
*980 FILLER_70_287
*981 FILLER_70_29
*982 FILLER_70_299
*983 FILLER_70_3
*984 FILLER_70_307
*985 FILLER_70_355
*986 FILLER_70_363
*987 FILLER_70_385
*988 FILLER_70_393
*989 FILLER_70_41
*990 FILLER_70_439
*991 FILLER_70_443
*992 FILLER_70_465
*993 FILLER_70_477
*994 FILLER_70_483
*995 FILLER_70_521
*996 FILLER_70_53
*997 FILLER_70_533
*998 FILLER_70_539
*999 FILLER_70_551
*1000 FILLER_70_555
*1001 FILLER_70_584
*1002 FILLER_70_609
*1003 FILLER_70_61
*1004 FILLER_70_613
*1005 FILLER_70_643
*1006 FILLER_70_645
*1007 FILLER_70_657
*1008 FILLER_70_669
*1009 FILLER_70_681
*1010 FILLER_70_693
*1011 FILLER_70_699
*1012 FILLER_70_701
*1013 FILLER_70_85
*1014 FILLER_70_89
*1015 FILLER_70_99
*1016 FILLER_71_108
*1017 FILLER_71_122
*1018 FILLER_71_15
*1019 FILLER_71_155
*1020 FILLER_71_218
*1021 FILLER_71_234
*1022 FILLER_71_258
*1023 FILLER_71_27
*1024 FILLER_71_294
*1025 FILLER_71_3
*1026 FILLER_71_333
*1027 FILLER_71_337
*1028 FILLER_71_369
*1029 FILLER_71_380
*1030 FILLER_71_39
*1031 FILLER_71_390
*1032 FILLER_71_402
*1033 FILLER_71_410
*1034 FILLER_71_458
*1035 FILLER_71_502
*1036 FILLER_71_51
*1037 FILLER_71_514
*1038 FILLER_71_55
*1039 FILLER_71_558
*1040 FILLER_71_57
*1041 FILLER_71_607
*1042 FILLER_71_648
*1043 FILLER_71_660
*1044 FILLER_71_673
*1045 FILLER_71_685
*1046 FILLER_71_69
*1047 FILLER_71_697
*1048 FILLER_71_709
*1049 FILLER_71_77
*1050 FILLER_71_87
*1051 FILLER_72_124
*1052 FILLER_72_130
*1053 FILLER_72_141
*1054 FILLER_72_147
*1055 FILLER_72_15
*1056 FILLER_72_190
*1057 FILLER_72_197
*1058 FILLER_72_230
*1059 FILLER_72_253
*1060 FILLER_72_265
*1061 FILLER_72_27
*1062 FILLER_72_29
*1063 FILLER_72_3
*1064 FILLER_72_338
*1065 FILLER_72_350
*1066 FILLER_72_354
*1067 FILLER_72_362
*1068 FILLER_72_365
*1069 FILLER_72_377
*1070 FILLER_72_398
*1071 FILLER_72_41
*1072 FILLER_72_458
*1073 FILLER_72_464
*1074 FILLER_72_477
*1075 FILLER_72_483
*1076 FILLER_72_505
*1077 FILLER_72_514
*1078 FILLER_72_53
*1079 FILLER_72_553
*1080 FILLER_72_581
*1081 FILLER_72_587
*1082 FILLER_72_589
*1083 FILLER_72_595
*1084 FILLER_72_607
*1085 FILLER_72_614
*1086 FILLER_72_634
*1087 FILLER_72_642
*1088 FILLER_72_645
*1089 FILLER_72_65
*1090 FILLER_72_657
*1091 FILLER_72_669
*1092 FILLER_72_681
*1093 FILLER_72_693
*1094 FILLER_72_699
*1095 FILLER_72_701
*1096 FILLER_72_77
*1097 FILLER_72_83
*1098 FILLER_72_85
*1099 FILLER_73_122
*1100 FILLER_73_15
*1101 FILLER_73_169
*1102 FILLER_73_197
*1103 FILLER_73_221
*1104 FILLER_73_234
*1105 FILLER_73_27
*1106 FILLER_73_298
*1107 FILLER_73_3
*1108 FILLER_73_370
*1109 FILLER_73_39
*1110 FILLER_73_393
*1111 FILLER_73_399
*1112 FILLER_73_429
*1113 FILLER_73_441
*1114 FILLER_73_498
*1115 FILLER_73_51
*1116 FILLER_73_514
*1117 FILLER_73_55
*1118 FILLER_73_561
*1119 FILLER_73_57
*1120 FILLER_73_614
*1121 FILLER_73_617
*1122 FILLER_73_629
*1123 FILLER_73_641
*1124 FILLER_73_653
*1125 FILLER_73_665
*1126 FILLER_73_671
*1127 FILLER_73_673
*1128 FILLER_73_685
*1129 FILLER_73_69
*1130 FILLER_73_697
*1131 FILLER_73_709
*1132 FILLER_73_81
*1133 FILLER_74_119
*1134 FILLER_74_15
*1135 FILLER_74_150
*1136 FILLER_74_156
*1137 FILLER_74_186
*1138 FILLER_74_197
*1139 FILLER_74_240
*1140 FILLER_74_253
*1141 FILLER_74_265
*1142 FILLER_74_27
*1143 FILLER_74_29
*1144 FILLER_74_3
*1145 FILLER_74_309
*1146 FILLER_74_317
*1147 FILLER_74_363
*1148 FILLER_74_41
*1149 FILLER_74_430
*1150 FILLER_74_451
*1151 FILLER_74_455
*1152 FILLER_74_523
*1153 FILLER_74_53
*1154 FILLER_74_531
*1155 FILLER_74_533
*1156 FILLER_74_543
*1157 FILLER_74_549
*1158 FILLER_74_585
*1159 FILLER_74_624
*1160 FILLER_74_636
*1161 FILLER_74_645
*1162 FILLER_74_65
*1163 FILLER_74_657
*1164 FILLER_74_669
*1165 FILLER_74_681
*1166 FILLER_74_693
*1167 FILLER_74_699
*1168 FILLER_74_701
*1169 FILLER_74_77
*1170 FILLER_74_83
*1171 FILLER_74_85
*1172 FILLER_75_100
*1173 FILLER_75_113
*1174 FILLER_75_119
*1175 FILLER_75_15
*1176 FILLER_75_151
*1177 FILLER_75_169
*1178 FILLER_75_198
*1179 FILLER_75_27
*1180 FILLER_75_279
*1181 FILLER_75_3
*1182 FILLER_75_301
*1183 FILLER_75_314
*1184 FILLER_75_320
*1185 FILLER_75_327
*1186 FILLER_75_335
*1187 FILLER_75_337
*1188 FILLER_75_361
*1189 FILLER_75_365
*1190 FILLER_75_380
*1191 FILLER_75_39
*1192 FILLER_75_393
*1193 FILLER_75_423
*1194 FILLER_75_444
*1195 FILLER_75_449
*1196 FILLER_75_460
*1197 FILLER_75_481
*1198 FILLER_75_51
*1199 FILLER_75_532
*1200 FILLER_75_55
*1201 FILLER_75_57
*1202 FILLER_75_587
*1203 FILLER_75_623
*1204 FILLER_75_635
*1205 FILLER_75_647
*1206 FILLER_75_659
*1207 FILLER_75_671
*1208 FILLER_75_673
*1209 FILLER_75_685
*1210 FILLER_75_69
*1211 FILLER_75_697
*1212 FILLER_75_709
*1213 FILLER_75_77
*1214 FILLER_76_122
*1215 FILLER_76_134
*1216 FILLER_76_141
*1217 FILLER_76_15
*1218 FILLER_76_153
*1219 FILLER_76_174
*1220 FILLER_76_194
*1221 FILLER_76_208
*1222 FILLER_76_232
*1223 FILLER_76_238
*1224 FILLER_76_242
*1225 FILLER_76_27
*1226 FILLER_76_282
*1227 FILLER_76_29
*1228 FILLER_76_3
*1229 FILLER_76_306
*1230 FILLER_76_317
*1231 FILLER_76_321
*1232 FILLER_76_330
*1233 FILLER_76_359
*1234 FILLER_76_374
*1235 FILLER_76_392
*1236 FILLER_76_41
*1237 FILLER_76_418
*1238 FILLER_76_429
*1239 FILLER_76_448
*1240 FILLER_76_475
*1241 FILLER_76_53
*1242 FILLER_76_533
*1243 FILLER_76_541
*1244 FILLER_76_585
*1245 FILLER_76_593
*1246 FILLER_76_605
*1247 FILLER_76_617
*1248 FILLER_76_629
*1249 FILLER_76_641
*1250 FILLER_76_645
*1251 FILLER_76_65
*1252 FILLER_76_657
*1253 FILLER_76_669
*1254 FILLER_76_681
*1255 FILLER_76_693
*1256 FILLER_76_699
*1257 FILLER_76_701
*1258 FILLER_76_77
*1259 FILLER_76_83
*1260 FILLER_77_105
*1261 FILLER_77_111
*1262 FILLER_77_113
*1263 FILLER_77_15
*1264 FILLER_77_189
*1265 FILLER_77_193
*1266 FILLER_77_223
*1267 FILLER_77_265
*1268 FILLER_77_27
*1269 FILLER_77_284
*1270 FILLER_77_3
*1271 FILLER_77_308
*1272 FILLER_77_318
*1273 FILLER_77_331
*1274 FILLER_77_335
*1275 FILLER_77_337
*1276 FILLER_77_372
*1277 FILLER_77_39
*1278 FILLER_77_393
*1279 FILLER_77_435
*1280 FILLER_77_445
*1281 FILLER_77_449
*1282 FILLER_77_481
*1283 FILLER_77_51
*1284 FILLER_77_514
*1285 FILLER_77_536
*1286 FILLER_77_55
*1287 FILLER_77_557
*1288 FILLER_77_565
*1289 FILLER_77_57
*1290 FILLER_77_573
*1291 FILLER_77_584
*1292 FILLER_77_596
*1293 FILLER_77_608
*1294 FILLER_77_617
*1295 FILLER_77_629
*1296 FILLER_77_641
*1297 FILLER_77_653
*1298 FILLER_77_665
*1299 FILLER_77_671
*1300 FILLER_77_673
*1301 FILLER_77_685
*1302 FILLER_77_69
*1303 FILLER_77_697
*1304 FILLER_77_709
*1305 FILLER_77_81
*1306 FILLER_77_93
*1307 FILLER_78_139
*1308 FILLER_78_15
*1309 FILLER_78_190
*1310 FILLER_78_251
*1311 FILLER_78_27
*1312 FILLER_78_286
*1313 FILLER_78_29
*1314 FILLER_78_3
*1315 FILLER_78_339
*1316 FILLER_78_343
*1317 FILLER_78_393
*1318 FILLER_78_397
*1319 FILLER_78_41
*1320 FILLER_78_418
*1321 FILLER_78_486
*1322 FILLER_78_490
*1323 FILLER_78_53
*1324 FILLER_78_533
*1325 FILLER_78_545
*1326 FILLER_78_565
*1327 FILLER_78_577
*1328 FILLER_78_585
*1329 FILLER_78_589
*1330 FILLER_78_601
*1331 FILLER_78_613
*1332 FILLER_78_625
*1333 FILLER_78_637
*1334 FILLER_78_643
*1335 FILLER_78_645
*1336 FILLER_78_65
*1337 FILLER_78_657
*1338 FILLER_78_669
*1339 FILLER_78_681
*1340 FILLER_78_693
*1341 FILLER_78_699
*1342 FILLER_78_701
*1343 FILLER_78_77
*1344 FILLER_78_83
*1345 FILLER_78_85
*1346 FILLER_78_97
*1347 FILLER_79_105
*1348 FILLER_79_111
*1349 FILLER_79_113
*1350 FILLER_79_118
*1351 FILLER_79_129
*1352 FILLER_79_15
*1353 FILLER_79_163
*1354 FILLER_79_184
*1355 FILLER_79_222
*1356 FILLER_79_251
*1357 FILLER_79_27
*1358 FILLER_79_3
*1359 FILLER_79_341
*1360 FILLER_79_389
*1361 FILLER_79_39
*1362 FILLER_79_446
*1363 FILLER_79_449
*1364 FILLER_79_479
*1365 FILLER_79_483
*1366 FILLER_79_51
*1367 FILLER_79_520
*1368 FILLER_79_530
*1369 FILLER_79_542
*1370 FILLER_79_55
*1371 FILLER_79_554
*1372 FILLER_79_561
*1373 FILLER_79_57
*1374 FILLER_79_573
*1375 FILLER_79_585
*1376 FILLER_79_597
*1377 FILLER_79_609
*1378 FILLER_79_615
*1379 FILLER_79_617
*1380 FILLER_79_629
*1381 FILLER_79_641
*1382 FILLER_79_653
*1383 FILLER_79_665
*1384 FILLER_79_671
*1385 FILLER_79_673
*1386 FILLER_79_685
*1387 FILLER_79_69
*1388 FILLER_79_697
*1389 FILLER_79_709
*1390 FILLER_79_81
*1391 FILLER_79_93
*1392 FILLER_7_688
*1393 FILLER_7_710
*1394 FILLER_80_100
*1395 FILLER_80_106
*1396 FILLER_80_136
*1397 FILLER_80_15
*1398 FILLER_80_161
*1399 FILLER_80_169
*1400 FILLER_80_214
*1401 FILLER_80_240
*1402 FILLER_80_251
*1403 FILLER_80_257
*1404 FILLER_80_27
*1405 FILLER_80_279
*1406 FILLER_80_29
*1407 FILLER_80_3
*1408 FILLER_80_335
*1409 FILLER_80_337
*1410 FILLER_80_349
*1411 FILLER_80_361
*1412 FILLER_80_365
*1413 FILLER_80_385
*1414 FILLER_80_391
*1415 FILLER_80_393
*1416 FILLER_80_41
*1417 FILLER_80_418
*1418 FILLER_80_445
*1419 FILLER_80_475
*1420 FILLER_80_477
*1421 FILLER_80_489
*1422 FILLER_80_519
*1423 FILLER_80_53
*1424 FILLER_80_531
*1425 FILLER_80_533
*1426 FILLER_80_545
*1427 FILLER_80_557
*1428 FILLER_80_561
*1429 FILLER_80_57
*1430 FILLER_80_573
*1431 FILLER_80_585
*1432 FILLER_80_589
*1433 FILLER_80_601
*1434 FILLER_80_613
*1435 FILLER_80_617
*1436 FILLER_80_629
*1437 FILLER_80_64
*1438 FILLER_80_641
*1439 FILLER_80_645
*1440 FILLER_80_657
*1441 FILLER_80_669
*1442 FILLER_80_673
*1443 FILLER_80_685
*1444 FILLER_80_697
*1445 FILLER_80_70
*1446 FILLER_80_701
*1447 FILLER_80_76
*1448 FILLER_80_82
*1449 FILLER_80_88
*1450 FILLER_80_94
*1451 FILLER_8_708
*1452 FILLER_8_712
*1453 FILLER_9_708
*1454 FILLER_9_712
*1455 PHY_EDGE_ROW_0_2_Left_66
*1456 PHY_EDGE_ROW_0_2_Right_147
*1457 PHY_EDGE_ROW_10_2_Left_9
*1458 PHY_EDGE_ROW_10_2_Right_76
*1459 PHY_EDGE_ROW_11_2_Left_10
*1460 PHY_EDGE_ROW_11_2_Right_77